23
 energy: -40.948471266766 gnorm: 0.000725271053 xtb: 6.6.1 (8d0f1dd)
C            1.75355365487100        4.23195863735844       -0.84122496021854
N            1.36284546520109        3.68156896135353        0.42774423444423
C            1.06950849299187        2.39811824695489        0.63118502334195
N            1.14199480050781        1.55416448784434       -0.40141507184797
C            0.85065996461508        0.29045846331978       -0.18732928371333
N            0.91472555265205       -0.56432286781701       -1.19215088209494
C            0.62017634016148       -1.83681031765734       -0.97293268885162
C            0.24523771160158       -2.33804565122412        0.25249315437122
C            0.16989233163187       -1.44841018667793        1.33696944767013
C           -0.19485822961942       -1.79789309156062        2.64642009501501
C           -0.22045365396070       -0.80446879411852        3.59985883538346
N            0.07827203695989        0.46122509581600        3.35630758749661
C            0.42473373132421        0.81474634863598        2.13077053477926
N            0.72228050892685        2.06907358547328        1.88202948807357
N            0.47681477979793       -0.13607721386979        1.09699098984349
H            1.03982846225086        4.99216655044853       -1.16491704107500
H            2.74498119719928        4.68380002062368       -0.77263789468050
H            1.77127774535616        3.41689918827561       -1.56123812074066
H            1.29262711197151        4.28119939990292        1.23580056715406
H            0.69451865644821       -2.47734593537428       -1.84182835685380
H            0.01071121478995       -3.37727104381046        0.40490654567620
H           -0.44260291068221       -2.82078444626347        2.87112482824706
H           -0.49436496499667       -1.01849943763303        4.62454296857969
