21
 energy: -38.260850203837 gnorm: 0.000941126809 xtb: 6.6.1 (8d0f1dd)
C           -1.20836495181778        4.66969413350594       -0.57278529224230
C           -0.67496803642287        3.62908226338932       -0.29707814708277
C           -0.02333855492535        2.41943818439777        0.02702217599876
C            1.28437228659168        2.42128766315633        0.50964469585405
C            1.90956737202719        1.23721650666316        0.82574701014763
C            1.24037975952357        0.01979987344054        0.66642953517148
N            1.84709804469517       -1.13135617547266        0.97351607075337
C            1.15592590349590       -2.23550368117967        0.79798502256458
N           -0.07542505360868       -2.33254953063689        0.35029699137966
C           -0.71430662074354       -1.20945689846002        0.03332859796943
N           -1.94090100069299       -1.27880105054885       -0.41458820229390
C           -2.58299908289947       -0.15367558384247       -0.73266303846912
C           -2.02547965214694        1.08908952643026       -0.61624114587970
C           -0.69963524844594        1.19275700609021       -0.13448059921642
N           -0.05494865360722        0.03009081503102        0.18737524597885
H           -1.67233118071545        5.57942518205336       -0.81138608018994
H            1.79808115150672        3.36273447417374        0.63209955652617
H            2.91717012957277        1.19935791317490        1.20073066803164
H            1.65345456684693       -3.16344205515142        1.04876125534531
H           -3.59193598743862       -0.29234471569876       -1.09532283931940
H           -2.55167519079506        1.99144614948425       -0.87552148102728
