24
 energy: -37.415477685784 gnorm: 0.000773379514 xtb: 6.6.1 (8d0f1dd)
C           -1.45825893960350       -1.95833769879846       -0.00004834561016
C           -0.13277652569626       -2.31063669608403       -0.00003568528116
C            0.87785247666125       -1.33020947747810        0.00001006207005
C            2.23165090453951       -1.70264942503476        0.00007343677640
C            3.22460017444921       -0.74665403793382        0.00014190047031
C            2.87206536159090        0.58418175461189        0.00014361299219
C            1.51943533023316        0.97008660343609        0.00008191787533
C            1.16772887545848        2.33051290300035        0.00010720240946
C           -0.15538614670688        2.71332870107808        0.00008614833655
C           -1.13482212861051        1.74406953792519        0.00005314071904
C           -0.79536355224423        0.38207269269586       -0.00003600817505
C           -1.80943415684055       -0.61228686488653        0.00001002980311
C           -3.16755788041299       -0.23665672997251        0.00090090751401
C           -4.33545764260218        0.04904211047285       -0.00052114351879
H           -5.35436277249836        0.29606036771963       -0.00030366683390
N            0.53157548856684        0.00569716668636        0.00000031119896
H           -2.18135813207607        1.99666959433899        0.00002808067777
H           -0.42281683069945        3.75872518680304        0.00008714630758
H            1.96344769482512        3.05608587914886        0.00015553082754
H            3.61601290514092        1.36268643072159        0.00021456175752
H            4.26372538460884       -1.03777166054187        0.00016791044477
H            2.46445425791790       -2.75401906413286        0.00006830402115
H            0.17081833293371       -3.34400365148439        0.00004916569294
H           -2.23305401231580       -2.70977324436148        0.00008195670559
