24
 energy: -36.636879256514 gnorm: 0.000182713040 xtb: 6.6.1 (8d0f1dd)
N            3.81375621483829        0.00000775623837        0.07022047439570
C            2.44833733304734        0.00000582817413        0.00594647102698
C            1.72931943775346        1.19010753350391        0.00295270642654
C            0.33231919898846        1.19370838118648        0.00402928537953
C           -0.37994869535834        2.40900232101782        0.00179207815772
C           -1.75561365514878        2.41809334836829       -0.00156145270596
C           -2.43927670676281        1.22051686353817       -0.00387830894406
C           -1.74557344241199       -0.00000168697058       -0.00161937226958
C           -2.43927229004530       -1.22052272263446       -0.00389912851583
C           -1.75560490614039       -2.41809676691484       -0.00160271468853
C           -0.37993997127905       -2.40900083075707        0.00175090763551
C            0.33232351985496       -1.19370435982139        0.00400881952894
C            1.72932375549329       -1.19009842380869        0.00293216071264
H            2.24094696271496       -2.13850217728370        0.00478790555310
N           -0.36280062624975        0.00000076232615        0.00254573162115
H            0.18792430525562       -3.32414415531440        0.00415736744604
H           -2.29485678459011       -3.35338706277363       -0.00230642887303
H           -3.51572347936645       -1.18866627683907       -0.00693241877619
H           -3.51572778044160        1.18865656952872       -0.00691216574900
H           -2.29486892093312        3.35338170273973       -0.00224926161311
H            0.18791227887016        3.32414765379905        0.00421416610586
H            2.24093921422843        2.13851310481575        0.00482484354917
H            4.29200680730808       -0.85410250054909       -0.15933360634126
H            4.29200375313124        0.85412362766815       -0.15931912387272
