23
 energy: -40.913892064497 gnorm: 0.000606133121 xtb: 6.6.1 (8d0f1dd)
C            0.27576093550319        4.59858493715227       -0.21265537244022
N           -0.71375562867705        3.56101662441831       -0.46204516145176
C           -0.27125999458006        2.24738348556179       -0.62108215043647
C           -0.67459318978005        1.21273360691159        0.20435864135878
N           -0.25942003830447       -0.04150512954617        0.08185134893815
C            0.58817789006939       -0.34939351856207       -0.86721832856318
N            1.09872410856053       -1.57987283394030       -0.92881282497558
C            1.89566306672640       -1.85346197191393       -1.93100528016832
N            2.23221915238101       -1.05257977741045       -2.92441625863092
C            1.76228145953215        0.18474216451820       -2.90419847492081
N            2.06266499626440        1.00968301639784       -3.88477529832310
C            1.57513022648250        2.24259944763476       -3.86036578187965
C            0.80816195177994        2.74103726877179       -2.83388139093557
C            0.51011984842552        1.88836262276301       -1.75396486774354
N            0.95489086515984        0.60046729437115       -1.83104577761408
H            0.67294396134265        4.55993855337177        0.80925820923709
H            1.10916190909419        4.49495170080419       -0.90327060638960
H           -0.19469488828776        5.56874226598210       -0.36851579485307
H           -1.45168412076088        3.60528574002094        0.23303857698856
H           -1.37256501198799        1.38881153200707        1.01342591078640
H            2.31750542045051       -2.84978890678176       -1.95601046917110
H            1.82779957328165        2.85118321888391       -4.71804791842255
H            0.40060750732452        3.73519865858469       -2.85268093038981
