23
 energy: -40.938046161836 gnorm: 0.000644637471 xtb: 6.6.1 (8d0f1dd)
C            3.06039687102525        1.79389745895330       -7.96767643758343
N            2.87671324375428        1.69028890011825       -6.54308398584923
C            3.65335414841856        0.95793165844155       -5.72194628930268
C            4.73303416071178        0.20034984226749       -6.19649854284146
C            5.50760444703305       -0.54203213271275       -5.32564819694937
N            6.54815622235527       -1.27393246407859       -5.77036621286599
C            7.22541152000829       -1.94445774199119       -4.87616223787485
N            7.01043527048795       -1.99229592400479       -3.56994884338390
C            5.99838978738636       -1.28658250786193       -3.09899925128462
N            5.72249736991390       -1.28445758767463       -1.80878162450052
C            4.69132456739862       -0.55161530947029       -1.41124194280706
N            3.90286509821522        0.17984211793891       -2.15144484461183
C            4.15513927393502        0.20144342637209       -3.47622111590379
C            3.38143453064967        0.94258925355021       -4.34402417553114
N            5.21044786137556       -0.53289991648859       -3.97915043311819
H            2.29141359586631        2.44295719038023       -8.37766929163128
H            2.98005202980067        0.81308633992046       -8.44311886190656
H            4.03974550002687        2.21667099481985       -8.20706642038741
H            2.12826940940206        2.21440571602381       -6.12146640251965
H            4.99935462864175        0.16558663822860       -7.23683435059437
H            8.06009321098195       -2.53039291538572       -5.23999836149926
H            4.48402987236256       -0.56516717290683       -0.34863284991863
H            2.56465738024901        1.50641413556042       -3.92688932713490
