23
 energy: -37.686189279544 gnorm: 0.000384646091 xtb: 6.6.1 (8d0f1dd)
C           -4.29011817665741       -0.09714757748598       -0.00033593506033
N           -3.15837665416964        0.20165553672835        0.00025829268190
C           -1.86119407803945        0.58833013390945        0.00002435784482
C           -1.53668102976174        1.93962123443114       -0.00005500319119
C           -0.21598207572831        2.30553103233412       -0.00010052992131
C            0.80732737720337        1.33601374512042       -0.00003770209785
C            2.15481654383598        1.72508985155151        0.00001695227487
C            3.16102459794880        0.78178138547692        0.00008231780946
C            2.82612318742013       -0.55310212391458        0.00007215698501
C            1.47892582149735       -0.95629216858504        0.00001950434266
C            1.14408134796325       -2.32210353167560        0.00000910095908
C           -0.17182945189159       -2.72277896270973       -0.00004198890556
C           -1.16627571307471       -1.76587287501496       -0.00004912449457
C           -0.84161114266970       -0.40292170511870       -0.00001993278254
N            0.47929524132130       -0.00480459373122       -0.00001795106809
H           -2.20722531710771       -2.04082985672443       -0.00008583505386
H           -0.42706643852126       -3.77077649833803       -0.00006453785840
H            1.94967137060923       -3.03652016261773        0.00004095133268
H            3.58006565457493       -1.32172505873898        0.00010796434201
H            4.19583640136321        1.08687436103506        0.00014157368249
H            2.37422215491701        2.77916187850034        0.00001703621993
H            0.07391759354177        3.34216360304937       -0.00014904702122
H           -2.32496206812461        2.67643952074022       -0.00005560172950
