24
 energy: -40.669849045243 gnorm: 0.000201681615 xtb: 6.6.1 (8d0f1dd)
C            1.34804946787674        4.66551008883860       -0.11587098218188
N            1.67610110291787        3.41419331690343        0.51021193855139
C            1.26750484861302        2.22394041812000        0.06262832225027
N            1.66412636798372        1.15923807755918        0.76916556608739
C            1.27090015097875       -0.03147925356900        0.34366859084394
C            1.64925880874817       -1.19143009683361        1.03574319306906
C            1.24004142665005       -2.42852287080052        0.59305338542010
C            0.45106064080954       -2.53832219654321       -0.53978935645994
C            0.06791618067457       -1.39416126089719       -1.23703363005414
C           -0.73478929397868       -1.41393873034146       -2.40110673081366
C           -1.04790552121215       -0.22606521388469       -3.00224499067099
N           -0.63908399131641        0.95919462683625       -2.55367859844392
C            0.10779291746906        1.00984672725635       -1.47426067879525
N            0.50991978764419        2.18466784780124       -1.03362212303644
N            0.48259325627602       -0.16576734779803       -0.78531337170275
H            0.78941217623099        5.30418387175004        0.57155962709519
H            2.25490775948004        5.18813089024404       -0.42706761077260
H            0.73638850937558        4.44252770455823       -0.98708921804447
H            2.24590268996808        3.40459852813129        1.34160820560331
H            2.26210916428890       -1.06248620335338        1.91034972598193
H            1.53473968783544       -3.31738772986692        1.13036286993646
H            0.11954610442329       -3.49626947802983       -0.90383049015457
H           -1.07660822913730       -2.36115151719534       -2.78143264732155
H           -1.65843401259957       -0.18698019888617       -3.89446099638616
