27
 energy: -43.807811184399 gnorm: 0.000540249971 xtb: 6.6.1 (8d0f1dd)
C           -1.99255888687601        3.54256634873256       -0.47984887949338
N           -0.56415195486040        3.61205363956256       -0.26630651113437
C           -0.18789066505395        4.57703427961066        0.73803047889833
C            0.23789441389464        2.50418716293068       -0.44684179254283
C            1.28303757773281        2.19893199013334        0.42566501838701
C            2.13405445860596        1.13632311290357        0.18937215451672
C            1.96478782120568        0.32857763462168       -0.92606170111738
C            2.78637425974799       -0.79752090880076       -1.22098218528811
C            2.51499226599081       -1.52998345465742       -2.33074440604347
N            1.52041264956185       -1.22262806493514       -3.18229565310348
C            0.76924849289978       -0.18953775486584       -2.94801405123116
N           -0.19416802358029        0.11641090484895       -3.82182598142637
C           -0.93694344516597        1.16252948080214       -3.56150448702808
N           -0.85633770913092        1.95143937701828       -2.51231737990697
C            0.09395042952941        1.68223314458202       -1.60213374881144
N            0.94474601210582        0.62179196392136       -1.79399301210308
H           -2.51266627808834        3.20507488366873        0.42589637623345
H           -2.35858798633237        4.53488401882468       -0.74294397394086
H           -2.20405895753840        2.86375792489116       -1.29931130804300
H           -0.39927488875410        4.23788646536804        1.76130935276923
H            0.87125805396996        4.81607791237360        0.65112540466596
H           -0.75758226314235        5.48865909681776        0.56000140211162
H            1.43436828638574        2.78671395480059        1.31533585071598
H            2.93404808103667        0.90964051395442        0.87435664475664
H            3.59008326725083       -1.03555206660929       -0.54555975330939
H            3.08754318617368       -2.40556852582640       -2.60166087073224
H           -1.70463819756842        1.40722696532755       -4.28497698779898
