22
 energy: -37.213046850018 gnorm: 0.000488100476 xtb: 6.6.1 (8d0f1dd)
C           -0.81541458055968        3.62376739004599       -0.36140025106416
C           -0.03361725294109        2.36252012893809       -0.17215445091054
C           -0.63856145263294        1.13875432811202       -0.07023322457983
N            0.01638627536552       -0.01251568892265        0.09908861259285
C            1.31856087314018        0.00028559422659        0.17576185943252
N            1.97189739269994       -1.15009244250683        0.34498623713223
C            3.28010881487276       -1.10630395140258        0.41843955263473
N            4.04055178879164       -0.03392691722360        0.34274493830097
C            3.42194403586631        1.13788637052504        0.17322683204678
C            4.16584068386585        2.31826291802865        0.08436310688778
C            3.52294553264031        3.52502975245584       -0.09049016535495
C            2.14348826795557        3.57245513172154       -0.17842548957704
C            1.39035565509571        2.39821180135041       -0.09086152573117
N            2.04494103196812        1.20659887743789        0.08298164588976
H           -0.63863061259806        4.31614254542528        0.46129024357514
H           -0.53327143421577        4.11865719800103       -1.29033949814960
H           -1.87721904421119        3.39648524380410       -0.39964000408116
H           -1.71460071736834        1.04003607295187       -0.12363481562146
H            3.78985956013701       -2.05126794057131        0.55589434587517
H            5.23551486823481        2.23332700204563        0.15800570588010
H            4.09642621902186        4.43689538530659       -0.15919837526947
H            1.63420409487149        4.50966120025043       -0.31479527990862
