13
 energy: -35.481024955287 gnorm: 0.000160551452 xtb: 6.6.1 (8d0f1dd)
N            0.38111516287510        5.23803652855361        8.31990117432214
N           -0.88556834222923        5.44413764788564        8.36328456787032
C           -1.67156326066491        4.98353961637233        7.38991323793712
N           -2.99427972663221        5.14277968795380        7.34050770739548
N           -3.66462602416381        4.66041633861116        6.35723675982877
N           -3.15320582197033        4.01020170406897        5.37513783218857
C           -1.83833827557293        3.79500295730879        5.32822356411506
N           -1.20979289230040        3.13358186262561        4.35620003322549
N            0.06414153744480        2.97911254747692        4.40192837514529
N            0.81947015925109        3.42368205391913        5.34037546514044
C            0.29053128206250        4.09902403811347        6.36092867808405
N            0.98463925433037        4.60075514810424        7.38262245953483
N           -1.07312305243003        4.29251986900634        6.35969014521241
