17
 energy: -34.509637333509 gnorm: 0.000661580376 xtb: 6.6.1 (8d0f1dd)
C            0.55513898898338        5.28347419747317        8.38306467694393
C           -0.72540164774338        4.96920277238194        8.77069993428014
C           -1.59730029935290        4.43012789715753        7.80860600266861
N           -2.85460044124067        4.09717101763396        8.09730348322125
N           -3.63294959073711        3.60111567655484        7.18248547589093
C           -3.20903813046902        3.41519775854676        5.96056300831863
C           -1.88570810512037        3.74107050855061        5.56418155199732
C           -1.29948073272304        3.59532144384640        4.29448656307450
N           -0.05027149824541        3.94089444766114        4.06313640603453
N            0.69748484173143        4.42968826596652        4.98802376271294
C            0.23727688804089        4.60960346639646        6.23201302349060
N            1.02560246449782        5.11018763614732        7.15164796465438
N           -1.08704775349495        4.25938231180311        6.53791579200056
H            1.26538483182049        5.70046454370252        9.08337756124324
H           -1.09453680712699        5.11384629574190        9.76962551799932
H           -3.90431306988776        3.00019124164813        5.24937947414280
H           -1.86307993893240        3.19289051878768        3.46912980132629
