21
 energy: -38.274121305607 gnorm: 0.000568550272 xtb: 6.6.1 (8d0f1dd)
N            2.70972109659904        4.61389808975396        0.04856693398476
C            2.12906703686316        3.62718316822658        0.07259042390662
C            1.41090746518148        2.40634434397360        0.10458730534479
C            2.08970341384929        1.19747319843331        0.02272385732318
C            1.37518097459836       -0.00678828850324        0.05414159602675
C            2.00905874237818       -1.26331085678555       -0.02515080989144
C            1.23112933029761       -2.39330980278464        0.01299680416215
N           -0.08816023438452       -2.36260020315462        0.12080466598707
C           -0.71331981091468       -1.20455519866611        0.19723659954657
N           -2.02718794413405       -1.21721179180961        0.30366251447250
C           -2.69283741875889       -0.07541468050716        0.38302628542626
C           -2.08287565142826        1.15380323284580        0.36069306885544
C           -0.67880430486591        1.20650426276938        0.24781221956281
C            0.02669553932789        2.41609754731082        0.21724010632934
N            0.00577426043320        0.01780115662583        0.16591183736969
H            3.16252711489487        1.16461186104690       -0.06522490755829
H            3.08081272961472       -1.30126463840138       -0.11305357733136
H            1.66483296166256       -3.38219902372178       -0.04411995011959
H           -3.76629596834852       -0.17402071098474        0.46803613650073
H           -2.63499168512419        2.07507369858460        0.42590400722109
H           -0.52150764774133        3.34077463574802        0.28213488288095
