27
 energy: -39.787051421794 gnorm: 0.000415998061 xtb: 6.6.1 (8d0f1dd)
C           -3.62615021023296       -0.24649863560220        0.89236165261125
N           -3.04006627759163        0.21633734236752       -0.35780545051963
C           -1.69235809954558        0.64010403083630       -0.27802478969417
C           -1.33488794697563        1.97135321914491       -0.32252390014112
C           -0.00271007254917        2.32851243625736       -0.23751044530360
H            0.29778526594916        3.36177845592917       -0.27249241062115
C            0.98837346906432        1.35651060854501       -0.06568343131547
C            2.34009858627200        1.72818675927052        0.10302153956778
C            3.31473177248759        0.77408018826780        0.25484041755654
C            2.95802685598915       -0.56154303018068        0.23266431659479
C            1.61942194767219       -0.94296717263358        0.06797912607072
C            1.26533888679020       -2.30713902782043        0.02681429723847
C           -0.03815245202204       -2.68617144077856       -0.18820869332412
C           -1.01197842826250       -1.71524284152021       -0.30890603497184
C           -0.67896964608335       -0.35541821495984       -0.20895169305765
N            0.63910215263652        0.02093924302403       -0.06419235343212
H           -2.03682578160754       -1.96629573347869       -0.51264885435484
H           -0.29988333144439       -3.73088378994530       -0.26072217445161
H            2.05275598257716       -3.03269193005954        0.14220857677214
H            3.69538933259119       -1.33924039373751        0.33679474244301
H            4.34718239389237        1.05987808483427        0.38624001176046
H            2.57198280655541        2.77982599749415        0.10978104128453
H           -2.09599682005129        2.73258956662325       -0.42202461703773
H           -3.61000895927699        0.96465803112644       -0.74080321073345
H           -2.98374408363946       -1.00658959495305        1.33246751704808
H           -3.75701235757297        0.55830458473992        1.62842622249004
H           -4.59928932610712       -0.68681317376310        0.67814338425961
