23
 energy: -40.940569562909 gnorm: 0.000706586908 xtb: 6.6.1 (8d0f1dd)
C           -2.37724941701663        1.87784608465927       -1.09295083187849
N           -1.97764540771522        1.68446645908206        0.27638432941965
C           -0.78265536566711        1.20142237871603        0.64296240725908
N            0.07736815242737        0.88478840649492       -0.33623366226737
C            1.25909444417735        0.40863745611593       -0.04032803678916
N            2.09764404859341        0.10064834336632       -1.02581082179324
C            3.27706405115569       -0.37557519844885       -0.68754308338155
N            3.73726013144636       -0.58830825838175        0.52334213200581
C            2.93795770169598       -0.29687380528122        1.54669215642858
N            3.35517372122472       -0.49297707142576        2.77184633958894
C            2.54077675079474       -0.19537014298397        3.78647318518548
C            1.27982266738041        0.30868552333210        3.62802822878598
C            0.80158876435431        0.53121184629761        2.31415398474542
C           -0.44938709382602        1.03535314075898        1.99530462875345
N            1.65795167312612        0.21728136182420        1.28618527708057
H           -2.60228325965446        2.92951111531713       -1.28087457071653
H           -1.54859781370505        1.56248209946959       -1.72264864683631
H           -3.26130379405366        1.27938097929486       -1.32137953594914
H           -2.63351018148166        1.92693085548053        1.00220101131791
H            3.94493954025695       -0.62000624855176       -1.50399929108293
H            2.95448121983819       -0.38398268566525        4.76779966336509
H            0.63985891706651        0.54164741118398        4.46165372983894
H           -1.13970945041691        1.28946994934433        2.78163140692030
