20
 energy: -38.542579004273 gnorm: 0.000832437028 xtb: 6.6.1 (8d0f1dd)
C            8.77091661453258       -4.66683412534961       -0.01128712747969
C            8.43482927480902       -3.51424922255001       -0.00767360335632
C            8.04203193977743       -2.15609691768331       -0.00913984890354
C            9.00679514627546       -1.15274882236836        0.05202425187804
C            8.62117592694412        0.18233229404727        0.05122062986041
N            9.52803507251557        1.17161518171988        0.10956798103021
C            9.07231907053561        2.39783151018813        0.10396510507043
N            7.80635225292311        2.77995865182558        0.04677107492095
C            6.88812855405002        1.83349326816293       -0.01156486286933
N            5.60644398692410        2.14360470078529       -0.07052283182919
C            4.73994904609176        1.14464065417800       -0.12704629814785
N            5.00917189989432       -0.13553076716813       -0.13138208469892
C            6.30408515831060       -0.48790524418485       -0.07231227361884
C            6.69068327491901       -1.82271589197729       -0.07143382952267
N            7.27811572960269        0.48514378971645       -0.01088118280817
H            9.06237198244334       -5.67512060380149       -0.00532366427966
H           10.05819868989219       -1.37692089536683        0.10086053892288
H            9.80772139806000        3.19052943088808        0.15119052033183
H            3.69494655010701        1.42232631660939       -0.17477421466997
H            5.92124843139203       -2.57354330767107       -0.11964827983062
