17
 energy: -34.529395084023 gnorm: 0.000605750462 xtb: 6.6.1 (8d0f1dd)
C            1.25306497505088       -9.41463573057306       -3.76241767018681
C           -0.01602530702866       -9.88617353633341       -3.50376447896034
C           -0.93670884901506       -9.00034957330884       -2.92614239590313
N           -2.19359552511773       -9.34476815837706       -2.63103822085829
N           -2.99465340138558       -8.48252317218726       -2.09939775052200
N           -2.65927912991310       -7.28563753892561       -1.82720199755090
C           -1.41346896298847       -6.83558253352907       -2.08519078583983
N           -1.08182914079577       -5.60822161317573       -1.80211102995673
C            0.16253636000977       -5.20208071533761       -2.07358352711666
C            1.12246923577098       -6.00034257670141       -2.63603591767319
C            0.78898514615422       -7.33672261335118       -2.95314148307351
N            1.65116042976864       -8.17601603351860       -3.49715550654026
N           -0.49865851099013       -7.72237221871378       -2.66123735231283
H            2.00712290568691      -10.04954779627662       -4.20675279037766
H           -0.33184515709169      -10.89013604707321       -3.72098557347538
H            0.36605207227232       -4.17315810055744       -1.81230937583027
H            2.12035093661248       -5.66171617206004       -2.84963071682220
