17
 energy: -34.497495731906 gnorm: 0.000766978388 xtb: 6.6.1 (8d0f1dd)
C           -2.44904581860153        0.56679962316972        0.00770454740639
N           -3.60739129076653       -0.05904648773768        0.00563693201651
C           -3.62593793376540       -1.37550842716977        0.00451850572431
C           -2.45002265987210       -2.14799206380417        0.00544997872706
C           -2.35212689775731       -3.56541249515073        0.00439898191899
N           -1.20394208426725       -4.18576355847796        0.00540226742983
N           -0.07954791291058       -3.53585767894483        0.00744666921351
C           -0.05737976578498       -2.21006622515458        0.00859305157534
N            1.10753815288687       -1.57671302888532        0.01069082506685
N            1.16313118351241       -0.27917897349522        0.01184529263749
C            0.08175299048203        0.45140452962676        0.01099225529861
C           -1.21998983239110       -0.11795338677230        0.00877580113777
N           -1.26301914283303       -1.47955044096609        0.00758919021131
H           -2.46628398448338        1.64520798003220        0.00857896551758
H           -4.58982095073923       -1.85944127707970        0.00282712123367
H           -3.24472332118224       -4.16917561876233        0.00270732656341
H            0.20372926847335        1.52209752957201        0.01204228832139
