22
 energy: -37.974596726517 gnorm: 0.000401715516 xtb: 6.6.1 (8d0f1dd)
C            2.49810215655112        4.65876966598239       -0.14783272788165
C            1.93411057874363        3.60026809438914       -0.09868274391663
C            1.29606216723731        2.33481499509923       -0.04321243789234
C            2.04235396782157        1.17381797278201       -0.09851458976504
C            1.37402324714354       -0.06392656363461       -0.04141077161621
C            2.05248896838880       -1.28892717661835       -0.09142328324702
C            1.35012674823330       -2.47512109434843       -0.03200669219258
C           -0.02563241474527       -2.44892979649306        0.07712753122866
C           -0.70678857510866       -1.22628254169215        0.12747858557956
C           -2.11115749816523       -1.13834852178851        0.23887552038198
C           -2.68954425019778        0.10355955188323        0.28125664628179
N           -1.99735084899983        1.23228975629297        0.22269351422276
C           -0.68329990683627        1.18754451843726        0.11808839948571
N           -0.03484962341302        2.32831872677773        0.06264878900131
N            0.00430491865980       -0.05386963422338        0.06734991604803
H            2.98109957057589        5.58963874602159       -0.19010343638527
H            3.11542103664871        1.19141799077931       -0.18381266744419
H            3.12593593196390       -1.27209280156555       -0.17669040041829
H            1.87368462639569       -3.41807515486438       -0.07067813386857
H           -0.60470854596125       -3.35561036081950        0.12589019077029
H           -2.68745265574402       -2.04592553646647        0.28743075147942
H           -3.76087959919189        0.22635916406945        0.36625804014832
