18
 energy: -34.262677857079 gnorm: 0.000511672085 xtb: 6.6.1 (8d0f1dd)
C            0.91727996695071        8.80434254641538        3.41638750528831
C           -0.33727763709538        8.98292142799874        3.98550851442618
C           -1.32562383969574        8.04789132169341        3.68160531237221
C           -2.66795211440215        8.05064036041630        4.15886184440107
N           -3.53778752019886        7.13717829914360        3.82807171385622
N           -3.21376262248279        6.16138483695564        3.03093687631071
C           -1.97927639938585        6.07974245800767        2.53670396358098
C           -1.60113909993431        5.03317293404389        1.67091349864850
N           -0.39573649932416        4.92297327540903        1.16700532800113
C            0.51895580499044        5.82374927610929        1.47303595426118
C            0.26903847442266        6.91041338931691        2.32145780909091
N            1.21742333493314        7.80825840085538        2.61351317074625
N           -1.00522986686159        7.01387474268986        2.84504243957542
H            1.72246508427197        9.49827573247338        3.61649370024222
H           -0.56310132114592        9.80546176958521        4.64068190663855
H           -2.99856525383292        8.83291507685618        4.82300187729037
H           -2.33410248350260        4.28794664811811        1.40930418739146
H            1.50151199229336        5.71028750391192        1.04576439787831
