19
 energy: -38.806710519042 gnorm: 0.000519244100 xtb: 6.6.1 (8d0f1dd)
C            6.97305649395599       11.52684794423855       -1.96712866090720
N            5.87401335670903       11.30798038282233       -1.64064252694446
C            4.59739213070179       11.06437313144717       -1.25833768467679
C            3.77352771988091       12.09320122469841       -0.80705630810835
C            2.47704880870757       11.83135940376505       -0.42169843105739
C            1.97616604049067       10.52938340071959       -0.48016955051083
N            0.71956288736720       10.24439667140333       -0.11209315370479
C            0.33856346688770        8.99536861088693       -0.20128078347717
N            1.06440666619905        7.97073400469174       -0.61922284151745
C            2.30583122750950        8.21229515323799       -0.98974046807720
N            3.08372432012038        7.23522142880996       -1.41682802392519
C            4.31773216549179        7.54439617549255       -1.77327867434767
N            4.86661929018026        8.73429146435528       -1.75006853907181
C            4.10542205055022        9.74644537145514       -1.32246443723165
N            2.80694771602267        9.52670954563556       -0.92918850088485
H            4.16832784016238       13.09705822206366       -0.76488458103994
H            1.81663578248044       12.60372162813792       -0.06902833337273
H           -0.67702983059308        8.77169549592723        0.09745252778767
H            4.93854186717685        6.72930074021288       -2.12009102893118
