16
 energy: -34.876073390182 gnorm: 0.000636961501 xtb: 6.6.1 (8d0f1dd)
C           -1.90334067191328       -1.77236570900824       -0.00766945971899
N           -0.67179322060713       -2.24125087052229       -0.02345871133819
C            0.31243481919899       -1.35715767374090       -0.01300489580740
N            1.58294516184395       -1.72598853460527       -0.02725716959236
C            2.48862271041300       -0.76869501648594       -0.01508818056990
N            2.27909141683154        0.53217982192277        0.01004796058939
C            1.02130545963289        0.94228661282019        0.02500765430377
N            0.70563505851093        2.22686511559647        0.05044473829881
C           -0.57628373647829        2.53235204985681        0.06356913721172
N           -1.59829879918692        1.70035973212732        0.05434067160745
C           -1.32473992267237        0.40615774714756        0.02897827968219
N           -2.27958076213131       -0.50958863551911        0.01776466251592
N            0.00299973413750       -0.00290373648227        0.01365132328762
H           -2.69650980753557       -2.50859136214570       -0.01629979238778
H            3.52281789729371       -1.08732198917462       -0.02680737441077
H           -0.81730533733763        3.58719244821320        0.08455115632851
