28
 energy: -43.544580645108 gnorm: 0.000457416846 xtb: 6.6.1 (8d0f1dd)
C            1.97718006458526        4.58423513441642       -1.56386185540820
N            1.81626753354415        3.58775014392354       -0.53482585597789
C            2.08440792768760        3.97948490035700        0.82618847978396
C            1.44860157420139        2.32923250895490       -0.84453249110533
C            1.29604543285487        1.32504722321687        0.11530588857102
C            0.90899195880685        0.05021308356902       -0.29311626549251
C            0.73509485815545       -1.01315236374672        0.61666290073263
C            0.35282829081231       -2.25473748333414        0.17313479304803
C            0.13565536480327       -2.46694433566270       -1.18016017330104
C            0.30493399785376       -1.42332044581654       -2.08778745870158
C            0.10111063223693       -1.57046140823576       -3.47830939275481
C            0.29391343635474       -0.48446659329111       -4.28893176312394
N            0.66419339392959        0.70947818545148       -3.84200502645891
C            0.86273769292637        0.88072872237560       -2.54678887909154
N            1.22746194054021        2.07316456411531       -2.14361907944329
N            0.68822924039292       -0.18250397144558       -1.63235089017615
H            3.00738566652050        4.94835439732626       -1.58417587471247
H            1.73533155986381        4.11890482549001       -2.51622620863018
H            1.30505864367224        5.42697052395419       -1.38522697009033
H            1.20696455689669        3.82695039052814        1.46041880753321
H            2.92031418546255        3.41188757282237        1.24524093480986
H            2.34188989966284        5.03574377311199        0.84278865913868
H            1.46655396065930        1.49178708252476        1.16315120145362
H            0.91166339882854       -0.81567515916022        1.66101300918301
H            0.22085824299057       -3.06560774475388        0.87370167129978
H           -0.16473062235353       -3.43026320233079       -1.55640298751931
H           -0.19935589509237       -2.53083559116324       -3.86060765918167
H            0.15077306320208       -0.54621473319917       -5.35979751438586
