24
 energy: -37.413886758966 gnorm: 0.000705349229 xtb: 6.6.1 (8d0f1dd)
C           -4.81811069447867       -0.00000862305070        0.00038502394938
C           -3.61777149946655        0.00026396614538        0.00002414270805
C           -2.20333423392319        0.00018788413353       -0.00009434051410
C           -1.49636724643161       -1.19321372594052       -0.00011329685809
C           -0.09380542464860       -1.19579648938878       -0.00010469312790
C            0.61549591573514       -2.40980305833127       -0.00010963778619
C            1.99290942244636       -2.41878145540782       -0.00008229651114
C            2.67375022314545       -1.22136917064815       -0.00005149666592
C            1.97781856102480       -0.00003617497511       -0.00005349857335
C            2.67388269746115        1.22122297064725       -0.00003008037766
C            1.99317179502123        2.41870760957199       -0.00003869602733
C            0.61575570559620        2.40987847392093       -0.00006546136131
C           -0.09367613172824        1.19594931481878       -0.00008284331634
C           -1.49624052715441        1.19351311590967       -0.00009237158230
H           -2.01070406705608        2.13965464129334       -0.00006743687533
N            0.59783771878875        0.00003913562027       -0.00008136633273
H            0.04781842265278        3.32469604579354       -0.00007353701694
H            2.53270833900484        3.35341563691710       -0.00002534749480
H            3.75011287974028        1.18685351030322       -0.00000919353671
H            3.74998402604171       -1.18711709958795       -0.00002938330085
H            2.53234481153856       -3.35354786630312       -0.00008588581117
H            0.04745718400288       -3.32455757850666       -0.00013491539489
H           -2.01093450185776       -2.13929808072501       -0.00010524647112
H           -5.86704252039451       -0.00002497573830        0.00004137459080
