22
 energy: -33.195756309887 gnorm: 0.000581126320 xtb: 6.6.1 (8d0f1dd)
C            1.08025398521342        3.23054716044716        9.88964712889295
C           -0.27843574860009        3.18041287563592       10.11225435375546
C           -1.17462684290516        3.00342130696912        9.04332002639535
C           -2.56081145391363        2.95263925264307        9.27356627136354
C           -3.44126131716494        2.77933227974171        8.22815737501850
C           -2.94796910207849        2.65553980983082        6.94775091295825
C           -1.56401137069593        2.70460444544485        6.70412175505647
C           -1.06346452954212        2.57796400907102        5.39625491818346
C            0.29204726642637        2.62564472226969        5.15455826403066
C            1.15744508463534        2.79957120929846        6.21235918457029
C            0.66967809180681        2.92749653845288        7.52492069612233
C            1.55531721317132        3.10491892180052        8.60254265960864
N           -0.68965334341233        2.87850728103280        7.75745448274358
H            1.76413800703296        3.36657537092247       10.71351555180761
H           -0.68940955945490        3.27458077831254       11.10316267203189
H           -2.90636090209475        3.05332343107405       10.28851685190337
H           -4.50446931938983        2.74099982016419        8.41003597356182
H           -3.60292810325856        2.51878919743615        6.10395325135961
H           -1.77244188538999        2.44344381349624        4.59692898827703
H            0.67137191126221        2.52794223607736        4.14881105485817
H            2.22337755878314        2.84215241343497        6.06524906597837
H            2.60984435956918        3.13875312644400        8.38691856152264
