19
 energy: -38.802460239186 gnorm: 0.000450145829 xtb: 6.6.1 (8d0f1dd)
C           -1.34853491036753        4.47058061402622       -0.48594172709140
N           -0.73528861369599        3.48797518106596       -0.33133340169429
C           -0.03591074517242        2.34238893474595       -0.15327329327120
C           -0.66028301536121        1.11175755949671       -0.02808949037379
N            0.00002372548645       -0.01785682192326        0.14632376322381
C            1.31493143983137       -0.00422885371324        0.20802499549892
N            1.97589210980484       -1.13870166047625        0.38302678015952
C            3.28904978690493       -1.08085198545284        0.43903954795102
N            4.03873834882899       -0.00584606136327        0.33960407776131
C            3.43044850565641        1.15917560423624        0.16329090790992
N            4.14359792900663        2.25860876669398        0.05898822307909
C            3.52912801792853        3.41848414787282       -0.11698214777871
C            2.15988839103317        3.55047034654745       -0.19970371388603
C            1.38356114228748        2.38784005482680       -0.09051516170798
N            2.02844121065624        1.19880443414135        0.09063736871044
H           -1.73793625681542        1.03007479838203       -0.06972853595353
H            3.80731440653844       -2.01980019766618        0.58256040608854
H            4.18179234328700        4.27695700689699       -0.19378070465341
H            1.67566618416217        4.50107813166245       -0.34299789397224
