17
 energy: -34.556372885214 gnorm: 0.000707227008 xtb: 6.6.1 (8d0f1dd)
C            0.58302309204890        4.83580013042638        8.58933161482109
C           -0.69114807879155        4.53198185757081        8.98490886592570
C           -1.59308477379421        4.03789161692010        8.01632322723707
N           -2.84288543195921        3.71872892549241        8.30974163458998
N           -3.64436081826135        3.26543745549696        7.38544984224289
C           -3.24375222376839        3.11377239452093        6.15497499740191
C           -1.91875855132523        3.42890455270481        5.73998455426706
N           -1.48565514364945        3.28590590767257        4.50335563021687
C           -0.21703850920252        3.62753044988846        4.28389644673392
N            0.63661199960403        4.08520019398473        5.15648185981935
C            0.22491928316294        4.24130355718134        6.42250741996803
N            1.03309924049199        4.69448943915954        7.33711173988516
N           -1.09937176696058        3.90329858594984        6.73407297891253
H            1.31520761936539        5.21712054204054        9.28712336390466
H           -1.04341196072159        4.64898862635749        9.99375710148610
H           -3.94866743956817        2.73561772278366        5.43379808711494
H            0.13786346332894        3.50933804184940        3.26856063547284
