20
 energy: -38.540824717793 gnorm: 0.000815689398 xtb: 6.6.1 (8d0f1dd)
C            5.00484090366369       11.84802347391151       -9.26926538880474
C            4.23682065487096       11.35274266336336       -8.49050767910340
C            3.31216827930061       10.81704843114419       -7.56865388511833
C            2.37644189429934       11.62293802489406       -6.92208399911981
C            1.48022153655223       11.08547254077136       -6.02327554863717
C            1.49919408128635        9.71858288356946       -5.74808521553087
N            0.63856485290156        9.16648351324788       -4.87752700627963
C            0.73234453168367        7.87697278610080       -4.68441323229403
N            1.58941024735203        7.04504087336781       -5.25636541803530
C            2.44940163627709        7.55345024889527       -6.11693987664503
N            3.33033565474054        6.77873071209779       -6.72184642868744
C            4.16387966427006        7.35326998905908       -7.57350410469041
N            4.21627917911007        8.62153149653236       -7.89034065002970
C            3.33552660751468        9.43712691766602       -7.29436801708736
N            2.42807462918904        8.93290942560425       -6.39286632370550
H            5.68396988643214       12.25881253575786       -9.95487266209612
H            2.36430737159239       12.68077026757272       -7.13709350826853
H            0.74855199641764       11.68557262983204       -5.51127367095015
H            0.03681841504858        7.43624527540751       -3.98216721455845
H            4.87763797750322        6.70027531120438       -8.05833017035869
