22
 energy: -37.208008632106 gnorm: 0.000579996010 xtb: 6.6.1 (8d0f1dd)
N            1.89323874818340        3.56706257354197       -0.14627720265979
C            1.32399605138806        2.34539240108460       -0.05297363658488
C            2.06497618284036        1.16936982839200       -0.09945403279677
C            1.39162914359606       -0.05197869659091       -0.04334103226393
C            2.06160950263961       -1.28982338001256       -0.08990155787820
C            1.35590900057340       -2.46698822354954       -0.03234142743509
C           -0.02529280651881       -2.43582763884291        0.07421480747208
C           -0.69717708731873       -1.21508057689532        0.12237862629816
C           -2.10284079082145       -1.11732112114301        0.23315152538230
C           -2.67317480355359        0.12546716082385        0.27767815547336
N           -1.97593922824916        1.25402624982038        0.21963391985834
C           -0.66255623203567        1.19934541569377        0.11141583439477
N           -0.00731975173397        2.33694787998133        0.05465886941407
N            0.01849633830535       -0.04113552610887        0.06216913423330
H            2.88757206363328        3.67429285883195       -0.06777436070786
H            1.29390869887429        4.36057159379752       -0.00372492687526
H            3.13816650718712        1.17849218910844       -0.18295480073916
H            3.13556019881423       -1.27834957748311       -0.17281829419260
H            1.87331125309292       -3.41371175490041       -0.06943435228748
H           -0.60578110592135       -3.34160465697808        0.12204894611291
H           -2.68385041783381       -2.02215580996683        0.28122411254341
H           -3.74386146514159        0.25420881139578        0.36571169323836
