26
 energy: -44.125833702291 gnorm: 0.000210069372 xtb: 6.6.1 (8d0f1dd)
C            2.92018054632219       -2.75778275620430       -7.70637732904324
N            2.69049455973514       -2.05616043945559       -6.47027785205147
C            1.52414113731710       -1.21531196274537       -6.40805497618600
C            3.51684728535122       -2.18185269119265       -5.43193041607242
N            4.58056920598005       -2.99368032039803       -5.58719246857516
C            5.40364418952527       -3.13210991213258       -4.58316498025919
N            6.46257203109701       -3.92271185451221       -4.69556777087385
C            7.25649365652467       -4.02048111608452       -3.64521499362396
N            7.12473718238318       -3.42265237269049       -2.48653455912507
C            6.06453641551340       -2.61459569452375       -2.33591321212500
C            5.83049685354091       -1.93242745250025       -1.14786788845399
C            4.72225934316763       -1.10721582348042       -1.03483590753795
C            3.84550183823485       -0.95181757988394       -2.08554349950553
C            4.06554571824396       -1.63176005732081       -3.29081483718148
N            3.23747877108460       -1.50001239321548       -4.31669783793903
N            5.17503181743017       -2.44613724427025       -3.37730842411775
H            3.03570925668179       -2.04369171161340       -8.52505874618368
H            2.07290860427793       -3.41091725195852       -7.92776875486849
H            3.82526457947763       -3.35059084028542       -7.60489864152863
H            1.57541256377118       -0.44705514048731       -7.18312809057177
H            1.48520256131663       -0.74653227775217       -5.42872247129612
H            0.62289549807445       -1.81234600826819       -6.56665839717608
H            8.11494069307532       -4.67079188322812       -3.75822561081611
H            6.53097080028848       -2.07207168810944       -0.34375646520434
H            4.54512297220756       -0.57957293586184       -0.10968578451381
H            2.97805191937851       -0.31815059182502       -2.02494008516939
