22
 energy: -37.976854511259 gnorm: 0.000756029693 xtb: 6.6.1 (8d0f1dd)
C           -1.39540470580793        4.55266098370844       -0.47926338528076
C           -0.74618260778132        3.55244645248416       -0.33169116692794
C           -0.00735065519715        2.36670361692035       -0.14638128582175
C           -0.62688996811773        1.13420327568240       -0.04861305888731
N            0.02889293823221        0.00116294538343        0.12138583228006
C            1.34549366394311        0.00546498239187        0.20708819784791
N            1.95527693586193       -1.14982025947147        0.37656670746860
C            3.27748636827015       -1.18749161596001        0.46719475977703
C            4.06661765099223       -0.06979799019330        0.39331525694206
C            3.44689875967515        1.18598971713001        0.21198016289232
C            4.17259312993844        2.38041860464869        0.12535879168972
C            3.51660190136214        3.58136502757892       -0.05231826016288
C            2.13923266665054        3.59798157190950       -0.14423045655188
C            1.41440194841738        2.40500506641424       -0.05742416444525
N            2.07711895361216        1.21734348922294        0.11905008728090
H           -1.96780854748227        5.42060321127397       -0.61559981296644
H           -1.70345811487734        1.04927947086741       -0.11036488603843
H            3.70072357711437       -2.17306781573861        0.60536707410824
H            5.13923887238727       -0.11388480970061        0.46825786530966
H            5.24566266843645        2.32928172117134        0.20120201021390
H            4.07569207949623        4.50184953353075       -0.11902490026765
H            1.58812248487412        4.51277282074549       -0.28285536846001
