18
 energy: -34.253746956704 gnorm: 0.000692094476 xtb: 6.6.1 (8d0f1dd)
C            0.32248179720892        7.18520073741309       -7.35463154035463
C           -1.04690199840488        7.02004934013452       -7.44329633824610
C           -1.74469713439553        6.38481509533750       -6.41152279283498
C           -3.14471467115897        6.16205356012765       -6.39675036204757
C           -3.69559177192938        5.52607125326888       -5.31928541518401
N           -2.98549990295575        5.09859721286568       -4.27059251599759
C           -1.69528172398023        5.29383670965666       -4.26462435353654
N           -0.96277728749782        4.87217438270706       -3.22064350931261
N            0.30502189682734        5.05055491176297       -3.18839943317241
N            0.95829849948264        5.63022978127961       -4.12485806247740
C            0.32057949700070        6.09224447302960       -5.21928929432646
C            1.01456140268847        6.72550579472943       -6.24833927722491
N           -1.04354308866542        5.93860941080273       -5.32887850820479
H            0.85586657607899        7.67624907080770       -8.15398766689160
H           -1.60205260850328        7.37143227269366       -8.29676128043513
H           -3.73428417353903        6.49874768641002       -7.23187244340262
H           -4.75686407825633        5.33074299076872       -5.25632723129360
H            2.07904876999964        6.83411531620439       -6.14076997505698
