17
 energy: -34.543275128800 gnorm: 0.000657006780 xtb: 6.6.1 (8d0f1dd)
C            0.76073126802318        0.86153967898510      -10.13220953718079
N           -0.53597226863036        0.91642049400173      -10.39877541914098
C           -1.35551731333240        0.85285423009592       -9.35737360884384
C           -2.76552526389268        0.89933092267115       -9.48225747176860
N           -3.57372903999955        0.83674300745488       -8.45576867920882
C           -3.06871411177105        0.72457381871749       -7.23525428826850
C           -1.69597508021533        0.67008804416079       -6.99990193301561
C           -1.03196169024775        0.55043953196247       -5.73804305208064
N            0.25715671184597        0.50822563738509       -5.62697256888520
N            1.03732616600243        0.57408634640262       -6.68493748760310
C            0.52944969900176        0.68474616829736       -7.88627544414423
N            1.32435469139055        0.75131267806051       -8.95608639811606
N           -0.86458293316583        0.73646684508841       -8.08064590554420
H            1.42574851162073        0.91296007511669      -10.98423404843798
H           -3.19672645456618        0.99042955577807      -10.46627506048574
H           -3.76735377223315        0.67590777353208       -6.41515777142038
H           -1.61304911983039        0.49169519228966       -4.83147132585527
