20
 energy: -38.528054355625 gnorm: 0.000415319899 xtb: 6.6.1 (8d0f1dd)
C            2.62159356197604        4.57857025182598       -0.17707198594135
N            2.04035449599023        3.56889630739171       -0.10924484342558
C            1.36873457558724        2.39092733546437       -0.03025834349371
C            2.07451013557152        1.19456431090423       -0.08282979398465
C            1.38470012019029       -0.01537505289717       -0.00187540315183
C            2.01862602485913       -1.27941826436441       -0.04670286367025
C            1.24392207082107       -2.40338659529403        0.04131354689918
N           -0.08248333492910       -2.37192908406236        0.16764122401517
C           -0.69476586525115       -1.21745482230006        0.21176083556842
N           -2.01878170914158       -1.18690143186601        0.33785314831224
C           -2.60747728434346       -0.01451756202644        0.37949600247137
N           -2.02545597765760        1.16395022776667        0.30924250111209
C           -0.69703972285874        1.17826104171570        0.18215778373710
C           -0.01289418114876        2.39186414386922        0.10170962568672
N            0.02051160591747       -0.00278845855891        0.12830343982985
H            3.14654431828581        1.18640856944130       -0.18517506896121
H            3.08904918488482       -1.32214948734530       -0.14844038275875
H            1.67517065141453       -3.39423358818908        0.01246145945516
H           -3.68468629592978       -0.01621740579469        0.48244359345766
H           -0.58404237423797        3.30239956431926        0.14492552484240
