22
 energy: -39.608798207455 gnorm: 0.000610476031 xtb: 6.6.1 (8d0f1dd)
C            2.29092117815649        4.09753162024847       -5.45494663702592
C            3.25219403127790        3.37760948384181       -6.02180493966778
C            3.91758836134954        2.27577791003024       -5.34489311614536
N            4.86580187457835        1.64748008442352       -6.04658008154337
C            5.49895395547521        0.64458914362733       -5.48286611742029
N            6.44471812726119       -0.00611314643129       -6.13974589105131
C            7.04160023972766       -1.00528113056253       -5.51265433470627
N            6.80373473319245       -1.43435514994569       -4.29851678844618
C            5.84924498798288       -0.79654965709018       -3.60247745048845
C            5.51821762782507       -1.17345460828039       -2.30293119488342
C            4.52797690287685       -0.49017682501100       -1.61923853671394
C            3.86029720469473        0.56478446058104       -2.20948483102793
C            4.18281565190493        0.95274331396869       -3.51203574887863
N            3.55727937660873        1.96728358390063       -4.11072604700990
N            5.17193260525301        0.25735371651715       -4.17245063089757
H            1.81006066289910        4.91048767229206       -5.97147608402260
H            1.96735730179737        3.88136187971862       -4.45073355187126
H            3.60694752130215        3.56066597160916       -7.02498625344758
H            7.81219577067551       -1.52381998873406       -6.06853834692723
H            6.05591301447446       -1.99870562769492       -1.87054503209029
H            4.27481568141592       -0.78583136042427       -0.61242423897327
H            3.08643318927051        1.11482865341569       -1.70356414676142
