16
 energy: -34.805615988819 gnorm: 0.000769910098 xtb: 6.6.1 (8d0f1dd)
C            0.49282447634535        9.50085778418210        3.38420138132018
C           -0.82867232072912        9.44259752133931        3.78219094998074
C           -1.57508228862166        8.33147440657462        3.37759768208250
N           -2.86842088821227        8.14017853313763        3.68870508980299
N           -3.48282235082655        7.09336779109885        3.27857278310489
N           -2.93434684712182        6.17803597866764        2.56500313540983
C           -1.65043457324513        6.27658831222291        2.20277648893291
N           -1.06375869502646        5.35403042628450        1.47245775257414
C            0.21232870891496        5.55195440610096        1.17086581524028
N            0.96423780940245        6.56690501600139        1.51753863746497
C            0.40899201603919        7.52524465594436        2.25843069725667
N            1.09382628532070        8.57594831579939        2.64786107359629
N           -0.92822932109842        7.39123716727326        2.61733045228024
H            1.12282448095281       10.33390067445718        3.66453620309879
H           -1.30226337767479       10.20044058829483        4.37937481529042
H            0.68237688558077        4.78504842262101        0.56951704256418
