15
 energy: -26.206808036369 gnorm: 0.000519194746 xtb: 6.6.1 (8d0f1dd)
C            2.63868693837507       -0.01744406683146        0.11384482654641
C            1.82795599769875        1.13266660904018        0.16607090577994
C            0.49719348076761        0.75275615622936        0.11392361781103
C            0.50123762473018       -0.73597836725739       -0.04632752035652
N           -0.52691948964670       -1.49601872613942       -0.32958943914823
N           -1.73122243879422       -1.17057390044784       -0.01936689441405
C           -2.28983830241915       -0.01215848589378        0.15672138282277
N           -1.87417952295903        1.21313886093167       -0.18912600854083
C           -0.61410715955731        1.55503094116203       -0.19310629834062
H           -0.43241315328973        2.59627274597493       -0.44384253954917
H           -3.31422899813655       -0.05640671686287        0.51303091402732
C            1.85208167586122       -1.13805299767156       -0.05788733861990
H            2.18244382543799       -2.15342438496962       -0.15889135037752
H            2.18496520914286        2.14457342771013        0.22882402101862
H            3.71337307278902       -0.00890312777436        0.14905736554071
