16
 energy: -25.931826676380 gnorm: 0.000336885940 xtb: 6.6.1 (8d0f1dd)
C           -2.69825642897842       -0.00787851106979       -0.00219911152068
C           -1.92546268033061       -1.15548386965918       -0.00401130522599
C           -0.57267377233573       -0.78021886519389       -0.00182824668320
C           -0.54837784836840        0.71065378971143        0.00138274058684
C           -1.86975789511778        1.12598766329954        0.00099644091714
H           -2.20447327299852        2.14661352688779        0.00272072865644
C            0.59151377062081        1.51323727978918        0.00285941084244
N            1.87592225490922        1.22326423410248        0.00477838684215
N            2.42919569885052        0.04638107258576        0.00539982727611
C            1.87878870828761       -1.14115956706197        0.00146536625601
C            0.53852710842263       -1.58130446633604       -0.00247359774452
H            0.38370467527890       -2.65425331886172       -0.00495495253615
H            2.63191055623535       -1.92475194799188        0.00213027960644
H            0.41928094180854        2.58735063960959        0.00283757772933
H           -2.28609404577581       -2.16714045421484       -0.00657398965771
H           -3.77393042640827        0.01781646670351       -0.00333863824475
