15
 energy: -26.237499149543 gnorm: 0.000917396941 xtb: 6.6.1 (8d0f1dd)
C           -1.85993498878638       -1.19897935226765       -0.00192053150654
N           -2.40269935530910       -0.00708492512375       -0.00056046936377
C           -1.80743620833734        1.17848189678221        0.00147560275326
N           -0.55644588176956        1.56941423197380        0.00046841959803
C            0.49382047037643        0.77476899884082       -0.00035593477913
C            1.82844428340427        1.16768050798749       -0.00150823443383
C            2.57590785966463       -0.01053303139246       -0.00065638471437
N            1.83544114052529       -1.12394948277527        0.00056290405986
C            0.55836313233429       -0.73610220986495        0.00056614967310
C           -0.51547772461410       -1.59625945183965       -0.00041268946460
H           -0.29560185852795       -2.65586850159838       -0.00097435510676
H            3.64942289414392       -0.09261624066235       -0.00085711443405
H            2.20017863706458        2.17182649936618       -0.00239417812333
H           -2.51680738993175        2.00384557752768        0.00365092397392
H           -2.59988944923722       -1.99606385025374       -0.00435747543176
