13
 energy: -26.722996284456 gnorm: 0.000792923431 xtb: 6.6.1 (8d0f1dd)
C           -2.29232013446798       -0.04085687510450       -0.20967566053328
N           -1.92109755674270        1.19224312798800        0.15401537269993
C           -0.67310581623644        1.55818343777820        0.21080549386625
C            0.44296198486506        0.77081451533543       -0.13703949681485
C            1.80393332146927        1.08115234579389       -0.20274373227568
N            2.53500204231716       -0.03845566974452       -0.17764722795549
N            1.77571469306758       -1.07379312033802        0.05258802498632
C            0.50174642511435       -0.69654784406547        0.08353750483930
N           -0.52688136054721       -1.41476739125461        0.51358933072282
N           -1.69413676918526       -1.13951712714873        0.13088438714049
H            2.26587044379972        2.04136051749124       -0.32702284915440
H           -0.50462078867867        2.57504239603421        0.55011830082753
H           -3.27836196577491       -0.14246661456507       -0.64350348034888
