14
 energy: -26.455485607254 gnorm: 0.000600688556 xtb: 6.6.1 (8d0f1dd)
C           -1.87346542463081       -1.08323003706544       -0.08801259818367
N           -2.65491577639849       -0.00022957906778       -0.09641857861147
C           -1.87374182252219        1.08293688812947       -0.08685560177567
C           -0.52127573990766        0.74064685374914       -0.07944720145635
C           -0.52108858973948       -0.74063763237594       -0.08026392649591
C            0.62821411601345       -1.49883356992655        0.18264702310730
N            1.83609082027511       -1.12148868352676       -0.14760134498807
N            2.24346305583714        0.00054663670355       -0.57824342001120
N            1.83574268826662        1.12197421977652       -0.14644964976080
C            0.62784869679957        1.49876913526199        0.18432961266008
H            0.54271997556313        2.51299009942667        0.55356020741513
H            0.54320870920346       -2.51349492499564        0.55070213056516
H           -2.30196753541615        2.06769786772017       -0.07938355904941
H           -2.30148958184368       -2.06808522890939       -0.08157312401512
