15
 energy: -26.197016150090 gnorm: 0.000880801550 xtb: 6.6.1 (8d0f1dd)
C           -1.89762193670786       -1.14496672548945        0.00372546118520
N           -2.43914551919851        0.04368832816135        0.01349625617214
N           -1.89349115263228        1.22606189239370        0.00842166125394
C           -0.61061303515005        1.52366209110983        0.00067296071601
C            0.52120880404745        0.71138836446481        0.00075797248408
C            0.54283974732278       -0.77759084696760       -0.00187523596590
C            1.92061266446829       -1.09234861009580       -0.00497027260867
N            2.67228150198930       -0.00651583954306       -0.00435389499965
C            1.86143900484096        1.06992927289020       -0.00053195716008
H            2.27654218943561        2.06041776384069        0.00037388667492
H            2.36010526089945       -2.07253471556385       -0.00797457901246
C           -0.55340152934975       -1.59116841704356       -0.00359290066066
H           -0.39373847212354       -2.66303418202193       -0.00586475692414
H           -0.43689624454068        2.59683932535898       -0.00359522157713
H           -2.65311533460117       -1.92584130029428        0.00589361112239
