15
 energy: -26.186816174124 gnorm: 0.000608120534 xtb: 6.6.1 (8d0f1dd)
C           -2.68219569140578       -0.00026144082347        0.10850644970075
C           -1.88094330082005       -1.14139698981647        0.05932289518741
C           -0.54744745325526       -0.74084120487775        0.02697097954420
C           -0.54762958864955        0.74078297024800        0.02663686787215
C           -1.88122965294773        1.14103779198473        0.05882386144101
H           -2.22784040318771        2.15757105373812        0.04815418846569
C            0.61332291720344        1.49068277189466       -0.18771524995543
N            1.82081953121338        1.12829000472509        0.17772040712635
N            2.24081333253200        0.00039414851713        0.58807687524874
N            1.82112797492000       -1.12780076253440        0.17816859970293
C            0.61368197732469       -1.49058804698941       -0.18704429964505
H            0.53787608631562       -2.51607437350693       -0.52961014592852
H            0.53733812393192        2.51599692365878       -0.53075263492322
H           -2.22732683563505       -2.15801204833926        0.04908432845986
H           -3.75740067213989       -0.00039483307886        0.11935995980297
