12
 energy: -26.976752475445 gnorm: 0.000965771591 xtb: 6.6.1 (8d0f1dd)
C           -1.78916968601457       -1.18872308977150        0.09303493467057
N           -0.55503941735345       -1.50860311042343        0.09520307040148
C            0.49757846153285       -0.70608796749580       -0.04432592649270
N            1.76676202264806       -1.08953472531646       -0.21060519191623
N            2.49706126169397       -0.02863710173648       -0.06889973867975
N            1.83151489808771        1.08071321438179        0.04253995725899
C            0.54255286984024        0.75243319067175        0.14036021663784
C           -0.61489977492072        1.56882914596214        0.14246543726342
N           -1.70982944370484        1.07525988881304       -0.33412577189446
N           -2.24329910516823       -0.04070994934413       -0.48519955511280
H           -0.56276288116412        2.63879957437370        0.27456539189244
H           -2.53142443197692       -1.92504792801459        0.36217499217123
