12
 energy: -26.951835193900 gnorm: 0.000940414030 xtb: 6.6.1 (8d0f1dd)
C            1.99537629499552        1.00985794590931       -0.02757376363068
N            2.27867200011162       -0.26738466985860       -0.44400941095787
N            1.56423567897257       -1.21587605540729       -0.10228589059768
N            0.47015505680091       -1.44336455654906        0.43058997373800
C           -0.57152898348261       -0.67550270898833        0.09922198997866
N           -1.87541443389136       -0.95062791200531        0.06107821704458
N           -2.49172331487477        0.16353409541338       -0.16833986473687
N           -1.69047905993117        1.20322766155876       -0.17739308589202
C           -0.44111082130689        0.77237767017299       -0.11654063609044
C            0.74223090732521        1.53528508900162        0.07314975912447
H            0.61534086079217        2.59430593527145        0.25293531805657
H            2.87402250398881        1.61868082988106        0.12824899096327
