17
 energy: -25.693544725459 gnorm: 0.000254709174 xtb: 6.6.1 (8d0f1dd)
C            1.88630995137626        1.22778015551270        0.00010143452809
C            2.42126079714084       -0.05721302158536       -0.00002161296134
N            1.87364217363884       -1.25826108398964        0.00002926784071
C            0.58473303332517       -1.53901208188555        0.00022147352061
C           -0.52962288391355       -0.71609887423203        0.00040307309948
C           -1.86273370758504       -1.12986353868570        0.00056685729302
C           -2.68186234511093       -0.00318294887021        0.00073279223340
C           -1.89664337070232        1.14574980480245        0.00066732484580
C           -0.55157697793125        0.77043619825578        0.00044241069120
C            0.54851623620332        1.60439697504079        0.00031002147186
H            0.34191170012795        2.66918637364621        0.00039804463247
H           -2.25794288324941        2.15783927194747        0.00076595369829
H           -3.75777973603781       -0.01872329353450        0.00089010098015
H           -2.19470307003874       -2.15169588008212        0.00057116089864
H            0.39033517900190       -2.61024178247200        0.00018831506629
H            3.50810737454353       -0.11284970931421       -0.00018865301851
H            2.61159861351124        2.03179538914592        0.00003108917986
