15
 energy: -26.206245995128 gnorm: 0.000576992720 xtb: 6.6.1 (8d0f1dd)
C           -1.84311581603961       -1.25463357050889        0.00268636835464
C           -2.35764326870808        0.04426737685657       -0.00651338587518
N           -1.81052736095392        1.25179538803975       -0.00565245105415
N           -0.56311977159670        1.56350742215581        0.00155999592628
C            0.46432682054886        0.74429996571427       -0.00193312590517
C            1.80502748304996        1.15783340382295       -0.00057623565268
C            2.56530672951861       -0.00133891659494       -0.00198657213588
N            1.83093534447027       -1.12810007391652       -0.00186364065786
C            0.55518186750881       -0.75914693931300       -0.00254002909145
C           -0.51119457616896       -1.63933783575055        0.00381672402709
H           -0.27020655672115       -2.69409353301967        0.00891477496382
H            3.63894379075362       -0.07525469027993       -0.00204677602859
H            2.15507183084152        2.16973323312184        0.00026988087383
H           -3.44185070633885        0.12007171303323       -0.01287340615490
H           -2.57981745726440       -2.04803562386093        0.00717615921020
