16
 energy: -25.956675257777 gnorm: 0.000513234130 xtb: 6.6.1 (8d0f1dd)
C           -2.39821929599864       -0.00018005537898       -0.00060031133516
C           -1.79546863612992       -1.25833661403848       -0.00031702853768
N           -0.52270191351638       -1.60228693977739       -0.00036719215978
C            0.48666426228988       -0.76726347271575       -0.00071233534619
C            1.82528876496402       -1.14741163998510       -0.00075831157693
C            2.61753292334503        0.00015546327864       -0.00115847527724
C            1.82513455959635        1.14761681478482       -0.00138251544718
C            0.48656149046905        0.76728940329974       -0.00113040662431
N           -0.52291652166031        1.60217822142689       -0.00125083852667
C           -1.79563664843061        1.25805727998843       -0.00101774249925
H           -2.46159310704043        2.11611050821324       -0.00118540075577
H            2.17516992216637        2.16230132765072       -0.00169765259517
H            3.69412581761031        0.00022781530035       -0.00127837120773
H            2.17545958100378       -2.16204957237249       -0.00052127641817
H           -2.46131022376766       -2.11647902944165       -0.00000101138110
H           -3.48168858680085       -0.00025215503304       -0.00047963451167
