14
 energy: -26.451352620367 gnorm: 0.000565980209 xtb: 6.6.1 (8d0f1dd)
C           -1.94944511205235       -1.23261795464626        0.10338029629545
C           -0.63662495431360       -1.63048455615539        0.13185474242477
C            0.46036167782201       -0.78551809613975       -0.10098812569229
C            0.49754246721484        0.67748184556520        0.12934045829158
N            1.76861125911898        1.07485646046227        0.11373980338617
N            2.54127456335407        0.05272776131107       -0.12883309786298
C            1.82478158542888       -1.07558927926843       -0.17413479825900
H            2.29964380733426       -2.02562803621348       -0.32787225787027
N           -0.54023633587228        1.43468943954869        0.45051934015535
N           -1.69906659123945        1.17334745204680        0.04601587508983
C           -2.35439335546791        0.08615120043723       -0.22388221433365
H           -3.35196453693763        0.25174643085513       -0.61159196568464
H           -0.41688579358176       -2.67528520682716        0.31663056723177
H           -2.72449766270802       -1.96520568377597        0.28065503892797
