9
 energy: -14.970663753169 gnorm: 0.000401420961 xtb: 6.6.1 (8d0f1dd)
N           -2.56417442118422        0.01403576966318        0.00062857877529
C           -1.41467843820898       -0.05037707455880       -0.00118651694984
C           -0.03134760840597       -0.08623734574655        0.00169156776554
C            1.08025854460338        1.02108960912016        0.00408719163303
C            2.00960202884516        0.07266963977244        0.00476030607074
C            0.93519514550971       -1.01844774076530        0.00287598365538
H            0.95468655919391       -2.09057325742077        0.00218652473516
H            3.08066171148090        0.04553932954093        0.00599115161767
H            1.04395077176606        2.09118604179470        0.00448489369701
