10
 energy: -13.888317931101 gnorm: 0.000910394799 xtb: 6.6.1 (8d0f1dd)
N           -1.82899417804133       -0.01460933404287       -0.15375724973187
C           -0.47582938225000       -0.08993420573449       -0.04086399455258
C            0.47476769918318       -1.03257206139646       -0.00172353948273
C            1.53977240480520        0.07659922568991        0.02475828341733
C            0.60859942338675        1.02304660216095       -0.01879527069291
H            0.57877965216773        2.09358795510705       -0.04009358871714
H            2.61211227387732        0.06295554054048        0.06469990032793
H            0.51051054117577       -2.10096443725754       -0.00366447867789
H           -2.34613545505066       -0.85806838271601        0.04016950452400
H           -2.26321106005397        0.83888850014900        0.15922853758586
