16
 energy: -27.561199522991 gnorm: 0.000373321307 xtb: 6.6.1 (8d0f1dd)
N           -3.38372763576809       -0.69000016545719        0.04705978375545
C           -2.24287803261281       -0.55074521102875        0.02015146340177
C           -0.85486336698224       -0.34933994978470        0.00044631535577
C            0.03305034358733       -1.42280239762600       -0.01881233496779
N            1.34060756185104       -1.29651891014297       -0.02681172135668
C            1.85472239387452       -0.05996829224527       -0.00972989484235
N            3.21195196306076        0.01275808290696        0.04481067912818
H            3.66905488888277        0.87654088973413       -0.18606830653458
H            3.70979690088101       -0.84447157716904       -0.12222813671098
C            1.06293671781003        1.08978783012837        0.00638651421694
C           -0.31950532401752        0.96457701746940        0.01061334091687
N           -1.14174861190244        2.04570065160715       -0.02566789196848
H           -2.12688409525504        1.90897563896704        0.12366948225922
H           -0.76076268561143        2.95764676647056        0.15246806955478
H            1.52205772436042        2.06694465365684        0.01665113088329
H           -0.34320642625837       -2.43732511978653       -0.03063970489143
