13
 energy: -24.395124318768 gnorm: 0.000365826825 xtb: 6.6.1 (8d0f1dd)
N            3.01788694581310        0.64316845572215       -0.00276047243863
C            1.87304636812968        0.55357876668461       -0.00241677195344
C            0.47847497813903        0.38834516759040       -0.00157999769485
C           -0.41384980867424        1.45496325746113        0.00124238198667
N           -1.72538678545219        1.28196968487757        0.00179110367852
C           -2.15820827715535        0.03361962972171       -0.00050034889295
N           -1.42436727694013       -1.05945574533377       -0.00325718547627
C           -0.09888554893561       -0.91207707683872       -0.00383605245667
N            0.65164134131780       -2.02342863957491       -0.00643520924652
H            0.18860959335385       -2.91503520210999       -0.00839060787832
H            1.65515365803858       -1.97052654598694       -0.00759417898018
H           -3.23081495847582       -0.10931536342877       -0.00009060595567
H           -0.06001920425870        2.47754733501554        0.00307001890833
