18
 energy: -26.188522326984 gnorm: 0.000462993182 xtb: 6.6.1 (8d0f1dd)
N            2.57560812655137        1.04207099602457       -0.08125459017503
C            1.29117843180538        0.52312092909588       -0.00238248657726
C            0.19182270850626        1.37505187108354        0.00113932581026
C           -1.09873113216672        0.85656011977600       -0.00253150302359
N           -2.19206407209846        1.70724636368922       -0.08155084534042
H           -2.02571853680747        2.65270092485152        0.22486469099900
H           -3.06302698063670        1.32196492821422        0.24802692697110
C           -1.28670989689047       -0.52142637360553        0.00293387145221
C           -0.19251421300404       -1.37967112794943        0.00560365189643
N           -0.38399250246480       -2.75206050289416        0.09227903002543
H            0.38879152083977       -3.31284525823135       -0.23067947556183
H           -1.28072089138168       -3.07991957383384       -0.23077397311576
C            1.09480983231707       -0.85369333546483        0.00308596158047
H            1.94733582084164       -1.51824231881502        0.00530162325805
H           -2.28857483188665       -0.92724970273688        0.00503195808252
H            0.34119509116736        2.44563965882117       -0.00487520056939
H            3.30782211394499        0.43308523034356        0.24834738917393
H            2.67437502226311        1.99692436063138        0.22525221371388
