13
 energy: -25.183043863248 gnorm: 0.000547897882 xtb: 6.6.1 (8d0f1dd)
N            3.45979758410235        1.24931368702275       -0.00069290689540
C            2.44351143168211        0.72143242639360        0.00155942228536
C            1.19435472560910        0.05730409609867        0.00007194091767
C            1.13558829015024       -1.34249411588456       -0.00026619876375
N            0.00013142593009       -2.01054904044830       -0.00051991764796
C           -1.13541929884411       -1.34265485013557       -0.00039025106135
C           -1.19438441308165        0.05713582018665       -0.00007508363924
C           -2.44363373097342        0.72107431685134        0.00067237251064
N           -3.45990428477758        1.24884794274056       -0.00036448061426
C           -0.00006472764435        0.77405849732232        0.00009562896867
H           -0.00013892944500        1.85466693913523        0.00050514374784
H           -2.04036112021194       -1.93489194452718       -0.00044068811818
H            2.04061402610415       -1.93460368785552       -0.00016357009000
