16
 energy: -22.753036613616 gnorm: 0.000516194323 xtb: 6.6.1 (8d0f1dd)
N           -2.40548556790660       -1.00098558293900       -0.08015494488424
C           -1.20980554578575       -0.30601325566088       -0.00125259268751
C           -1.20193083455113        1.08898411260323       -0.00025762916261
C            0.00002765228046        1.76965436414299        0.00018349173713
C            1.20200830697502        1.08902324011865        0.00050580354953
C            1.20992852256565       -0.30597402034824        0.00125722378408
N            2.40563119412921       -1.00092112266966        0.08003825997859
H            2.37736849469822       -1.95746023891549       -0.23523815329751
H            3.22270015071609       -0.49467125278969       -0.22160220489971
C            0.00007268180626       -0.99175167999601       -0.00005757824638
H            0.00009035898106       -2.07365909085196       -0.00015205458064
H            2.13857992332745        1.62735932180611        0.00354057406366
H            0.00001005404156        2.85016943288345        0.00027786239608
H           -2.13851995799308        1.62729023937246       -0.00319838764026
H           -2.37719142252195       -1.95757898949577        0.23495377057491
H           -3.22257086336245       -0.49481524116018        0.22157468511487
