12
 energy: -19.873376704923 gnorm: 0.000478819249 xtb: 6.6.1 (8d0f1dd)
N           -2.27802110658984       -0.01551420968131        0.01153873158981
C           -0.92686802682837       -0.03770469122964        0.02736985813402
N           -0.30408232649111        1.14423391831877        0.02467310520105
C            1.01426539411816        1.12251145873833        0.00346202468940
N            1.79419980740194        0.06127882201283       -0.01202494058357
C            1.17547182333935       -1.11829124076110       -0.00718819944132
C           -0.19475115647591       -1.23833706646293        0.01304444233432
H           -0.69068272262106       -2.19576201549343        0.01753694193360
H            1.82049099513051       -1.98776673440053       -0.01730065231357
H            1.50569994694792        2.08767890022177        0.00108994015243
H           -2.73277347267874        0.87377612719218        0.11762715575456
H           -2.80330270375288       -0.85807297805493        0.15676885704928
