11
 energy: -16.150108183792 gnorm: 0.000537109542 xtb: 6.6.1 (8d0f1dd)
C           -1.40725353896087       -0.00081336041065       -0.00023549792903
C           -0.69968832508410       -1.19244276075028       -0.00016409408211
C            0.68609974671567       -1.13275524318546        0.00010566371146
N            1.36525014633310        0.00076314625182        0.00029780209213
C            0.68481107907684        1.13350839206758        0.00022839438450
C           -0.70104400944945        1.19161993145462       -0.00003497797007
H           -1.21143916599027        2.14248072058584       -0.00008153036255
H            1.28224250181204        2.03631586207761        0.00039232933692
H            1.28455760705974       -2.03488263593538        0.00017181540330
H           -1.20900183440840       -2.14388334635691       -0.00031370587508
H           -2.48799817350430       -0.00142793799881       -0.00044340110944
