21
 energy: -37.316646301187 gnorm: 0.000887210685 xtb: 6.6.1 (8d0f1dd)
N            2.59253952558477        2.81901284454870        1.56500651763641
C            2.04859246354107        1.94213043319847        1.06030023214547
C            1.36012351174470        0.87370544200427        0.45666618966477
C            0.23214008201478        1.22799943318879       -0.37701151969315
C           -0.92382898695135        0.54492453071604       -0.48908070791988
C           -1.91180914974474        1.00371477946438       -1.38451790691413
N           -2.74493557298136        1.34624009030268       -2.09782751898052
C           -1.38643455191636       -0.62502241752450        0.31705755103643
C           -0.79820142153960       -1.82914573489231        0.26903355782092
C            0.47405604897636       -2.05150054715993       -0.42925776181365
N            1.57357455736997       -1.46016510932603       -0.14221065729265
C            1.86144414056226       -0.39223794070907        0.60017951039494
H            2.73511395559369       -0.52669085563590        1.23144253099153
N            0.50068033247013       -3.05261114983180       -1.33358737965628
H            1.34238028144474       -3.21643495855000       -1.85785759219851
H           -0.34732671261132       -3.51508372063583       -1.60569751183936
H           -1.23715804563359       -2.68183239163390        0.76550526094420
N           -2.50804380040765       -0.36148535164660        1.05335074445138
H           -2.98477824934975       -1.13445135681082        1.48596976312257
H           -3.07686987333577        0.42722008869691        0.79452736059629
H            0.32821563957025        2.15336607043763       -0.93596815759658
