19
 energy: -33.866584648382 gnorm: 0.000511395328 xtb: 6.6.1 (8d0f1dd)
N           -3.33346506474430       -1.52027803251404        0.48499860782002
C           -2.39035358437524       -0.90471434943629        0.25274048228926
C           -1.22245624201936       -0.17044546561852       -0.03210642498823
C           -1.48779289239125        1.07282045234636       -0.75552133502900
C           -1.00022898528456        2.29289146552967       -0.50573987907797
C           -0.06249905715027        2.58224446382143        0.57318995965671
N            1.05543204216579        2.03518374728084        0.76274226159220
C            1.68011810469481        1.08652266401577        0.03513320084618
C            1.29042346586358       -0.20317152577297       -0.07846589520748
C            2.17211550392813       -1.15934211665558       -0.61562737736681
N            2.87236793224782       -1.96318412920365       -1.04316730756748
C           -0.02794806144628       -0.72985286117622        0.33859686808769
N            0.02004406518488       -1.89153998200701        1.03723712144388
H            0.88508857201294       -2.40308649076538        1.08414169471001
H           -0.83603828460883       -2.39387157957359        1.21077903284332
H            2.65585716837376        1.38739176438444       -0.33091647035561
H           -0.35798659557370        3.34557686932490        1.28853449414552
H           -1.39686086729364        3.14776103858285       -1.03511207357801
H           -2.28254838498506        0.98421387863723       -1.48882769756356
