16
 energy: -29.928774329755 gnorm: 0.000529385016 xtb: 6.6.1 (8d0f1dd)
N            3.90088797126245        0.22057564623706        0.27281254198693
C            2.75900543341398        0.14801923029727        0.16625310588357
C            1.36565293573437        0.03015018139567        0.04923442596004
C            0.83909256753539       -1.09777198583412       -0.68442806469180
N           -0.25491375466622       -1.68918973215769       -0.42999712964295
C           -1.20901693410310       -1.52027039040142        0.49300958169081
N           -2.05741008232063       -0.56270833925222        0.54070612845426
C           -1.74585566474457        0.62048549834865       -0.08751984292966
N           -0.68953279312937        1.32807597102091        0.16889083081227
C            0.55696875391822        1.05160792875416        0.51326720527154
H            1.03355514510320        1.85545252290313        1.06670185717533
N           -2.71577820680047        1.16035938960178       -0.84260210456992
H           -3.61783104440211        0.71811383576351       -0.85872502139050
H           -2.61650985586368        2.10601669960562       -1.16864033285465
H           -1.37880534237508       -2.37965383353991        1.13617841796752
H            1.42441579603748       -1.49554690324244       -1.50855695552279
