18
 energy: -34.158728055667 gnorm: 0.000305793000 xtb: 6.6.1 (8d0f1dd)
N           -4.36869055862698        0.53763481916018        0.93898972618358
C           -3.28465697044502        0.34989008626296        0.60894277014307
C           -1.95456362054483        0.15160926357806        0.20789303783371
C           -1.39876319783120        1.05916576878081       -0.78617668865972
N           -0.22764228414571        1.53120155295262       -0.77622902263584
C            0.83845221282448        1.41028412685043        0.02824264496920
C            1.56791980316118        0.27396526791315        0.17095650611918
C            2.86090429334306        0.25448016056491        0.70478578814700
N            3.92935239853999        0.19002436832470        1.12443638626928
C            0.99218406138211       -1.02667435680030       -0.26482533432957
N           -0.15333205976155       -1.45667877608331        0.11029777553073
C           -1.24723545730054       -0.93279073147053        0.65860241518864
H           -1.70663692537840       -1.57909565457806        1.40045666600319
N            1.77816378467828       -1.80971552552829       -1.02146136563449
H            1.46057129096900       -2.73230329337940       -1.26765962264639
H            2.74686011450903       -1.57448777795877       -1.15316515682502
H            1.20783635028301        2.35508533971061        0.41258149233670
H           -2.04243692885393        1.38314615239916       -1.59917164149281
