25
 energy: -44.997952482527 gnorm: 0.000766445393 xtb: 6.6.1 (8d0f1dd)
N           -3.69660924246057       -2.09833390657244        0.76438065408345
C           -2.77613462776655       -1.54391748972913        0.35339341123150
C           -1.65300714466265       -0.85807781770398       -0.13940838394732
C           -0.97333691570370       -1.51093891565226       -1.25283170882912
C            0.33251598550411       -1.74903435574180       -1.36535454521473
C            1.35709591065313       -1.46849488083907       -0.35521315942703
N            2.10976660824940       -2.54095384417585       -0.00863574864101
H            2.79296645651139       -2.45414465682273        0.72535135010549
H            1.82205094007190       -3.46150345286398       -0.28819393679266
C            1.63077890375945       -0.22429432706855        0.13690292888528
C            2.70107681218138       -0.05223045741182        1.02926559090542
N            3.58322886589764        0.09080928303253        1.75426613327517
C            0.99202317850539        1.02634283606533       -0.30406976515281
N            1.85002273028785        1.96314549229315       -0.78130686024630
H            1.51360879499073        2.89719838014192       -0.95142264252379
H            2.83858157367798        1.83602807301517       -0.64701273792967
C           -0.34557980843251        1.27883856367951       -0.19252358815672
C           -0.82067640009253        2.56050068043132       -0.51688331131454
N           -1.20731188218513        3.61651866040697       -0.76169202024849
C           -1.36890712327538        0.38049757404325        0.36513592967156
N           -2.09549954434508        0.91441714410431        1.38403096334394
H           -2.04562645898052        1.90582696416069        1.54830718255714
H           -2.93045095096224        0.43594321565851        1.68288449029532
H            0.69817872087591       -2.30243307632712       -2.22111492812705
H           -1.63572293490039       -1.90102182852463       -2.01771914890352
