20
 energy: -32.786440425388 gnorm: 0.000777783970 xtb: 6.6.1 (8d0f1dd)
N           -3.32423893853967       -0.21136457848982        0.50704600560996
C           -2.20225164902823       -0.13464324295667        0.25015601343228
C           -0.85001516909428       -0.05223353603561       -0.09626178428509
C           -0.31366041901698        1.29845089099988       -0.26903905215221
C            0.87580556328753        1.77329284882818        0.20870688380879
C            2.01071623230668        1.14466386653982        0.79472357606345
C            2.60937775770261       -0.05236666432371        0.56788928366329
C            2.22974656816042       -0.96757999784071       -0.46927753235522
N            1.06959456327145       -1.35676386526644       -0.80044594975240
C           -0.10923246164181       -1.21103101501393       -0.13270338211496
N           -0.60047507478007       -2.37315575539092        0.37620145325003
H           -1.56331225238872       -2.39897803829897        0.66842840573834
H           -0.16409141197081       -3.23639076304722        0.10236140076703
H            3.03858482027995       -1.34559609067974       -1.09404286606604
H            3.57935966402463       -0.22523395047819        1.01424937119913
H            2.56532818806731        1.81593735426922        1.44420277184148
H            0.96412832192801        2.85506802362886        0.17964564701942
N           -1.20036428356053        2.17648749351012       -0.82589787363608
H           -2.16286355005591        1.89367504251140       -0.91068648685507
H           -1.02194609725159        3.16328694233443       -0.74355630367618
