20
 energy: -32.006380878890 gnorm: 0.000620775704 xtb: 6.6.1 (8d0f1dd)
N           -2.86500678635642       -0.41347410755351       -0.82900708578661
C           -1.65601200400444       -0.20578829846598       -0.23186614624856
N           -1.01003735257085        0.85056121564112       -0.56518397178956
C            0.08626707051283        1.33021579888003        0.09910644595712
N            1.29871029783099        0.91231399790849        0.02162256281020
C            1.69748913438777       -0.35015625717740       -0.28798239430811
N            2.85961782273052       -0.37594352414638       -1.02302568266694
H            3.35222106477060        0.50012262047136       -1.07846902258754
H            3.43204087781408       -1.20135330798022       -0.95933710169180
C            1.18899755062572       -1.52076419329919        0.21543299165375
C           -0.04725101949171       -1.78150478361320        0.86721676586385
C           -1.27037379319475       -1.21237447672440        0.74737451953122
H           -2.09897756793316       -1.66882514229627        1.27344537559961
H           -0.01400845918249       -2.66164697343686        1.50437040477067
H            1.84331503353312       -2.38213032628998        0.13951290823378
N           -0.14491006003503        2.48464893178467        0.78437138451494
H            0.65984835963670        3.00898521190688        1.08096069723643
H           -0.99193641083040        2.98705827075312        0.58485578891220
H           -3.07203377803351        0.15169761033084       -1.63579365751791
H           -3.26296610530946       -1.33635449219317       -0.79744042038682
