18
 energy: -28.553796142429 gnorm: 0.000444474293 xtb: 6.6.1 (8d0f1dd)
N            2.86675268971716        0.01290550396767       -0.77332980221069
C            1.63575105033113        0.09255475575865       -0.17845319881635
C            1.04141531210900        1.31207116874249       -0.05469507694488
C           -0.16363303379619        1.60376405441489        0.66308677279781
N           -1.25767681587529        0.95434564246998        0.69405240982173
C           -1.55336249818773       -0.11744408150345       -0.13088958706586
N           -1.13447079465632       -1.32242495589418       -0.04007683626340
C            0.01054948825922       -1.69730416926093        0.58926940023117
C            1.23384177327159       -1.15380997797115        0.47518578204810
H            2.06995143414076       -1.70836186090307        0.88250367320967
H           -0.08427636285522       -2.64961570276561        1.10097173193370
N           -2.51937672205470        0.17666092051864       -1.04874519266080
H           -3.09471102525404        0.98235573571127       -0.87203742238141
H           -2.94992234253329       -0.60911007655585       -1.50620885818936
H           -0.16428415755260        2.52753778894577        1.24307806313401
H            1.59716893010266        2.17439117238564       -0.40365128501101
H            3.23586045920618       -0.89649132743114       -0.98860741051084
H            3.18002724422771        0.78087576887042       -1.34176350292157
