16
 energy: -25.110715262528 gnorm: 0.000570424794 xtb: 6.6.1 (8d0f1dd)
N            2.29347447403803        0.21706823236155        0.85452089736309
C            1.20998877573040       -0.11127001697135        0.09715919172127
N            0.78400817147151       -1.31108605211248        0.08523426521505
C           -0.43106049003798       -1.71087669745568       -0.39274452765351
C           -1.63627728975165       -1.18885626228868       -0.10381117696815
C           -1.92639359687639        0.03755877367527        0.61748608149316
C           -1.35224137593957        1.23915099465377        0.46930189902678
C           -0.31479411094013        1.54873801044929       -0.51178098559827
N            0.77200646763621        0.94312277541557       -0.71133866366143
H           -0.50610296157305        2.40996070016371       -1.15253884179727
H           -1.75173302040669        2.09390694814085        1.00003395842668
H           -2.78089029119454       -0.02762311354043        1.28340322307378
H           -2.51075328516449       -1.76866346938909       -0.36977006364847
H           -0.38244713561850       -2.66361680783643       -0.90837280881053
H            2.83473986151125        1.01694930817022        0.57351809578706
H            2.78768533121565       -0.55231765593617        1.27412609373073
