19
 energy: -28.255392601160 gnorm: 0.000932348761 xtb: 6.6.1 (8d0f1dd)
N           -2.25178902479987       -1.59639944424356        0.52112888303129
C           -1.32874182641767       -0.66172979754439        0.09209532651375
C           -1.71140518545873        0.61694666520646       -0.11632665336972
C           -0.90316133881562        1.63521741930119       -0.75047976000621
N            0.27635169150694        2.00002643952820       -0.47289061484609
C            1.05686691096079        1.54218807125173        0.55605944367043
C            1.55320678797736        0.31644226649955        0.72624047352833
C            1.19279657109895       -0.85952746472789       -0.07507151812174
C           -0.06134132568928       -1.26736191731674       -0.32527033738630
H           -0.19283041156260       -2.20568892358626       -0.85415577580822
N            2.27702638079327       -1.64984636195519       -0.42459041128700
H            2.10355894293182       -2.34921956789455       -1.12992232409612
H            3.15228429062906       -1.16282461311775       -0.53500411175621
H            2.31622467587549        0.14547891333932        1.47354878135760
H            1.39086173771229        2.35121489962259        1.19875216094913
H           -1.38495230557348        2.19945063478141       -1.54913622066474
H           -2.74681777125824        0.88027261135296        0.06299192852937
H           -1.88326978257621       -2.45231165727212        0.90171528271623
H           -3.07799849793427       -1.24415675982498        0.97677868634617
