22
 energy: -40.288374936313 gnorm: 0.000839569423 xtb: 6.6.1 (8d0f1dd)
N            3.79822651981420       -0.17113947631942       -0.29960819301940
C            2.65046345468589       -0.10241700669393       -0.18762295417474
C            1.26639111520020       -0.02576583384049       -0.04925381436649
C            0.60393075825559       -1.18718915536755        0.48384241335275
N           -0.58269820006973       -1.62509397423839        0.17949067559734
C           -1.61982050872779       -1.06015436864449       -0.44149370179625
N           -2.23109241532030        0.05297394609034       -0.11831393009989
C           -1.63515523556556        1.10986093122187        0.43681266478071
N           -0.50285895475558        1.66514880776047        0.08385577548892
C            0.63480733834150        1.18877368443086       -0.39607337117394
N            1.33217533047337        2.06804535915037       -1.16180174983518
H            0.99296156902543        3.01302490137407       -1.21114994258692
H            2.31006353648027        1.89786294117093       -1.32858942426990
N           -2.38732392240235        1.80737434534771        1.32330448350864
H           -3.35729297415359        1.55952719138774        1.40682650156160
H           -2.10231303498628        2.74350635604593        1.55159596181939
N           -2.22988617106963       -1.84337465867167       -1.36434859258321
H           -1.95849596013250       -2.80898650780568       -1.42327468204273
H           -3.14899237151401       -1.57528331573824       -1.66992168423275
N            1.33913203374335       -1.98550292060663        1.29622331863363
H            0.97315740996784       -2.89422723043601        1.52214866843143
H            2.33119319810915       -1.83142225521782        1.36229453910672
