20
 energy: -32.792491734836 gnorm: 0.000740048016 xtb: 6.6.1 (8d0f1dd)
N            3.40332527020188        0.72675356282626       -1.37459463234618
C            2.34374640221210        0.59946241816146       -0.94203123317192
C            1.07002702827865        0.38987303818921       -0.40016824045433
C            0.18338112639291        1.41323253207104       -0.30733678795087
C           -1.13354744090267        1.41793074198156        0.23236249471732
C           -2.11001091218164        0.46966561462184        0.15599053799833
N           -3.35011030450175        0.75713488253745        0.65881765966056
H           -3.44958616804408        1.53108983212926        1.29309983431943
H           -4.02165060276029        0.01372833010651        0.73364109461039
C           -2.07652913582731       -0.75675641047225       -0.63747328069685
C           -1.09875965029613       -1.66886652937414       -0.70062146388194
N           -0.01346042997383       -1.78102515202728        0.11279536341954
C            0.90190427406082       -0.92331923262009        0.29931240111265
N            1.85024707062796       -1.14916207574768        1.24407144004335
H            1.85371810362638       -2.05242526939265        1.68754821273993
H            2.72364755534411       -0.65283126495572        1.18591389938525
H           -1.22428633720772       -2.53109640237078       -1.34763751848153
H           -2.97574571797817       -0.92844204216208       -1.21435312065177
H           -1.42745580911874        2.36430936887889        0.67452323782005
H            0.54346918064317        2.38812255461119       -0.62625933359395
