22
 energy: -41.064334923838 gnorm: 0.000916869962 xtb: 6.6.1 (8d0f1dd)
N           -4.25271491423671       -0.03671155194520       -1.13141108992171
C           -3.16601608999031       -0.17151439867258       -0.77643037336560
C           -1.85178912059444       -0.28239251067188       -0.31307148014678
C           -1.37102652774490        0.80132243076377        0.55900384523595
N           -0.22320814183093        1.36752784584725        0.47568879508475
C            0.89292678987125        1.14117103434562       -0.23766797413939
N            1.35888679491080        2.21758396953151       -0.91602837329096
H            2.30122759129747        2.20172501034346       -1.26815441144181
H            0.90705895983380        3.10451916360077       -0.78020762039276
C            1.66871486526248       -0.01108890591774       -0.14760970278588
C            3.01774656935725        0.02839984410164       -0.49416169248962
N            4.13841042910949        0.05700798368154       -0.76433276579221
C            1.13697572859565       -1.26907518842677        0.35709317155662
N            0.01272809980763       -1.79414350038953        0.00558996295894
C           -1.09289916084635       -1.38727148517257       -0.59541437296366
H           -1.51333421890049       -2.13061463903099       -1.26821239497835
N            1.94290002091473       -1.99221731426210        1.16589640266372
H            1.67533236993643       -2.93526664449973        1.39160745914543
H            2.91043306988182       -1.73122062068296        1.25146431798386
N           -2.24309583558552        1.25726575798316        1.47799171033450
H           -3.19924254034600        0.94793948310054        1.45443139811080
H           -1.99711104970337        2.05745865867416        2.03498274063425
