18
 energy: -30.139535401013 gnorm: 0.000631510637 xtb: 6.6.1 (8d0f1dd)
N            3.70527527801258        0.39627370705402       -1.63877451776003
C            2.78089555369470        0.18659313239253       -0.99361995168753
C            1.64115175586929       -0.05473842931446       -0.18805157308832
C            1.08062845107917       -1.27186432780642       -0.17933230287936
C           -0.05140684895208       -1.66836216559611        0.65136550405624
C           -1.24263727857523       -1.08212507613657        0.66768814712544
C           -1.64260393882205        0.05405168025406       -0.18622912321506
C           -2.78117561885136       -0.19969317223547       -0.98944696621812
N           -3.70418024148525       -0.41963737271328       -1.63290229332229
C           -1.08050607112529        1.27010967962692       -0.19561064679173
C            0.05099952876708        1.67679298089786        0.63127354534262
C            1.24250668511080        1.09163921126242        0.65250255365575
H            2.04033426244967        1.50584950731452        1.25626792066690
H           -0.11542432201240        2.57021386284655        1.22119949413425
H           -1.51876856679887        2.05054306356545       -0.80723484016389
H           -2.04021076500968       -1.48980223472563        1.27625343288367
H            0.11363366550289       -2.55677390489584        1.24951631278736
H            1.52108291834613       -2.06024274319052       -0.77957094572598
