18
 energy: -34.157436359759 gnorm: 0.000981737293 xtb: 6.6.1 (8d0f1dd)
N           -3.75454238847202       -1.64876321271480        0.00242563175205
C           -2.79206972198222       -1.02327213343421       -0.02181100291703
C           -1.62550948812905       -0.23162308632542       -0.02925322678221
C           -1.78024756320929        1.08952474205960       -0.55458155358112
N           -1.02839290655231        2.08456031143284       -0.29366288393472
C           -0.01682991860645        2.25816094528619        0.53447113218180
N            1.19434786221243        1.85182560907475        0.38048533799147
C            1.59944986123497        0.68385156939561       -0.10657701079947
N            2.82996489808068        0.65622729788688       -0.63430490329595
H            3.29234879775734       -0.22335402566067       -0.80206678977477
H            3.35626824122536        1.51189217820779       -0.69107487464494
C            0.92749957084937       -0.56558411397461        0.11277549155177
C            1.78887592304350       -1.68111820773869        0.12341878270997
N            2.51934855752988       -2.56941308840084        0.13222088402943
C           -0.43069300935073       -0.88412313131178        0.25535586835420
H           -0.57733672765766       -1.93759445586786        0.48379712770994
H           -0.18442757689698        2.99021087296857        1.32297580034318
H           -2.60962552297514        1.26735616901666       -1.23268779469192
