24
 energy: -40.465926273318 gnorm: 0.000584418106 xtb: 6.6.1 (8d0f1dd)
N           -2.64327745016042       -2.77216878317679       -0.95577536445785
C           -1.98719312323214       -1.90552960857527       -0.57638278706853
C           -1.20453256838140       -0.83051578253472       -0.12314794673367
C            0.01408127556664       -1.20663678560521        0.54781169577896
C            1.21555664191253       -0.60049203226335        0.47041422535640
C            2.29121888505535       -1.09807362805261        1.22978110513441
N            3.19792572652853       -1.47124396114742        1.83044828554381
C            1.60858269831377        0.46975482171466       -0.48233800339486
C            1.07670082406996        1.69690512292416       -0.50576328729721
C           -0.00872585627353        2.18365786866868        0.34222394107525
N            0.24075989204923        3.41572143789792        0.90199003743692
H            1.20490097290452        3.67769763300304        1.02129989886224
H           -0.38698546691059        3.73544135454705        1.62100322597074
C           -1.23261197179090        1.62579339192150        0.45276145419938
C           -1.75542662546582        0.43500656821122       -0.18683329721231
N           -2.98249911648809        0.59196648035623       -0.74287375092834
H           -3.44867978742609        1.47921748257442       -0.69342610754094
H           -3.48452779116835       -0.20642800064863       -1.09368270576269
H           -1.98072421293289        2.18092480579393        1.00913006470239
H            1.49041165970540        2.43743022364524       -1.17881006502105
N            2.59386634779478        0.07096287303394       -1.35639293783837
H            3.05039680609757        0.78996973183993       -1.89344423242758
H            3.18342148527007       -0.69399131951416       -1.07054372194690
H           -0.05123238873862       -2.11246618481355        1.14406951027059
