20
 energy: -38.391556850851 gnorm: 0.000872759953 xtb: 6.6.1 (8d0f1dd)
N           -4.13010494486966       -0.65962328085773        1.53741903955762
C           -3.09700048962647       -0.64608566256160        1.03856113062802
C           -1.82331672132452       -0.60873081404495        0.43225726942330
C           -1.02996924034585       -1.71317479087513        0.52978217532661
N            0.05205990346031       -1.98127375391284       -0.21817661049660
C            1.10576414550557       -1.29810083795171       -0.41611595741817
N            1.97024230945256       -1.62797053676567       -1.39041509157384
H            1.76950743138811       -2.43113505180597       -1.96223745030146
H            2.89487307987250       -1.23471623768131       -1.41485359115400
C            1.51989013916899       -0.11925567213325        0.42199597480278
C            2.71770884612976       -0.28811545358570        1.14385383706603
N            3.70516722816827       -0.46502452958943        1.69993053238372
C            0.84674399325771        1.03700929557336        0.40700320689694
C           -0.37923309288832        1.29060745410997       -0.35812536103199
C           -0.33250457365353        2.48613383173802       -1.11582777310010
N           -0.27489066633868        3.44748162391911       -1.73768089017572
C           -1.53543757853349        0.59320704580090       -0.32996783734366
H           -2.38227580985237        1.01676803433804       -0.85964612651295
H            1.23856781756625        1.89169006491688        0.94817265269633
H           -1.38564785403727       -2.56159685103119        1.10379603372684
