20
 energy: -32.785833123998 gnorm: 0.000645782170 xtb: 6.6.1 (8d0f1dd)
N            3.73637735426410        0.33746515764214       -0.32087851104047
C            2.60156615629028        0.30046515373293       -0.12581628994582
C            1.22036765880621        0.23895863276508        0.09285354791384
C            0.56978354592088       -0.96270982813334       -0.08255047206427
C           -0.79370767196892       -1.26668063559523        0.31961484870715
C           -1.94209616829635       -0.60544719627714        0.06039074539845
N           -3.15106335713174       -1.16028832662569        0.41079124465849
H           -3.94355295277084       -0.54144700431677        0.44838836119819
H           -3.14353051832731       -1.89667908630241        1.09748529941230
C           -2.06153331924321        0.60114530720456       -0.76203190268110
C           -1.31114286905446        1.69739291184134       -0.63640459565575
N           -0.45608031906944        2.00192811123951        0.38355779502983
C            0.61734099304655        1.42200113487740        0.70092044822263
H            1.18760025970270        1.88445859241890        1.50451428298973
H           -1.46838802405879        2.54127956588768       -1.29961767317864
H           -2.85445505927137        0.57465195022704       -1.49624010212032
H           -0.88353962738528       -2.22135977119876        0.82881362541601
N            1.27114622743939       -2.03800576020893       -0.52456485880205
H            0.85249510525169       -2.95009356875209       -0.52315534203417
H            2.25856088965660       -1.95473371982706       -0.69863867752446
