21
 energy: -37.311264887585 gnorm: 0.000718192096 xtb: 6.6.1 (8d0f1dd)
N            4.17433441151775        0.71099270936250       -0.74756484839828
C            3.08839693332269        0.55316801156720       -0.39926224772338
C            1.76201123389606        0.34789757580167        0.00533715863760
C            1.16998772634985        1.40010133205665        0.80347085034637
N           -0.01028560111052        1.84755185079746        0.72774307504304
C           -1.03732843134873        1.53996969361232       -0.07718186669248
C           -1.72170072696478        0.37200841842770       -0.10279824524955
C           -2.95133097838865        0.29104389085876       -0.77729812868222
N           -3.96586677230154        0.18832120916004       -1.30883948584045
C           -1.26558112384210       -0.88605140450088        0.52355033005675
C           -0.02405014447382       -1.41155428063862        0.40011178555002
C            1.19323158983185       -0.89984924225992       -0.19777920430783
N            1.91069498533494       -1.83303591598768       -0.86811155213231
H            2.83326731300076       -1.61032135848606       -1.20364306343986
H            1.60619206927903       -2.79004833976909       -0.88830602899763
H            0.09422723616047       -2.42513231497159        0.77122334698840
N           -2.24808773678429       -1.57150141287558        1.17566660711955
H           -2.08295719862689       -2.52596293160543        1.44673294953913
H           -3.20488502454974       -1.29971822511871        1.02344165476454
H           -1.42337248905524        2.39376653281813       -0.62573402724977
H            1.82240594585624        1.89710050284891        1.51732319856622
