20
 energy: -32.781785693855 gnorm: 0.000703207439 xtb: 6.6.1 (8d0f1dd)
N            4.09270802259267        0.28611610929775       -0.32663742270821
C            2.95504784048809        0.24970761144828       -0.15347043604092
C            1.56339109157524        0.16480134298362        0.00520602161668
C            1.08918545634138       -0.94854260121338        0.76244405840596
N           -0.06987806755067       -1.46981892789522        0.76542915775677
C           -1.14335703243674       -1.37360510882872       -0.03884241623124
N           -1.46371909066972       -2.55317642786760       -0.64378137257909
H           -0.77513739366491       -3.28593402199592       -0.64718958598095
H           -2.16770637132392       -2.56335683425177       -1.35941254629133
C           -2.03344397177092       -0.32210886776221       -0.08335113676990
C           -1.72013765065144        1.04654580143748        0.06469569587502
N           -2.80048902005783        1.86478625934083        0.16777677138569
H           -3.72354218075025        1.48125625047754        0.25456852714661
H           -2.69172088542122        2.86256806874549        0.16040737674885
C           -0.48954497635591        1.70929639809176       -0.09538487467368
C            0.82829975281210        1.31945656456514       -0.27069009643300
H            1.46812870007569        2.14253323328495       -0.57903921467767
H           -0.61793527769545        2.78529279589970       -0.16769451051300
H           -3.03693222302393       -0.53762292593506       -0.42682397787803
H            1.79216559958763       -1.37676025732269        1.47551683344110
