19
 energy: -33.083898542042 gnorm: 0.000966639501 xtb: 6.6.1 (8d0f1dd)
N            3.77904837301526        0.15564659274437       -0.01789286782667
C            2.62993590806337        0.21348030010579       -0.08066993311619
C            1.23567975652961        0.26129378319686       -0.13643706096422
C            0.60937003560477        1.46101608847119       -0.63270748731496
N           -0.47580037342831        1.98622595861598       -0.23404750817093
C           -1.36038622138892        1.63718474878198        0.73058979621405
C           -2.13836862862864        0.54297587385914        0.75051367153589
C           -1.86600976967770       -0.59388201813233       -0.13116840761684
N           -0.72564015307459       -1.16690092135423       -0.26818319896053
C            0.50944438360213       -0.88202058675005        0.19361930231634
N            1.12243784364339       -1.91439045343921        0.82607526541973
H            2.12041141020686       -1.87523396406077        0.95446912727454
H            0.67698578200400       -2.81553307507443        0.80897008868277
N           -2.92511725773578       -1.15005348364554       -0.75721709128496
H           -2.76200567352780       -1.88833529393208       -1.42019343019060
H           -3.80695986741765       -0.67112708488274       -0.77018362874150
H           -3.00269728589916        0.47751372756814        1.39230449546332
H           -1.54775744043564        2.44957742187719        1.42642445382970
H            1.14466836884429        2.02085019265107       -1.39616138214868
