18
 energy: -32.609833759681 gnorm: 0.000803074777 xtb: 6.6.1 (8d0f1dd)
N           -2.53423079896620       -0.60400937306638       -1.10619497229083
C           -1.53406245921089       -0.34762022684488       -0.23016715903989
N           -1.15785814065809       -1.36288659145657        0.53231698280534
C            0.01998271045542       -1.57378056755832        1.07148686477990
N            1.20709519581162       -1.26537012666077        0.64514927473727
C            1.53465741785821       -0.30497133804636       -0.23491359052224
N            1.16010570443640        0.95229549595581       -0.21558272692111
C           -0.02099236317567        1.42418718902590        0.18926956804578
N           -1.21307464491545        0.93395398278581       -0.07996165393654
N            0.00616559250997        2.66038216766057        0.73770116271698
H            0.87191174486987        3.16903988256218        0.71616847310546
H           -0.86070209911442        3.16030813821888        0.82450738503414
N            2.53114411880350       -0.62880590669549       -1.09158544789808
H            3.02220800865366       -1.49138539430484       -0.93565221307050
H            2.98857406466728        0.11480062197207       -1.58914141511895
H            0.00825747633412       -2.26000212247003        1.91640996415986
H           -2.99163870329716       -1.49709086066655       -1.04792893505297
H           -3.03216252446210        0.17733045008895       -1.49578616883362
