19
 energy: -28.265010212724 gnorm: 0.000405882480 xtb: 6.6.1 (8d0f1dd)
N           -2.32035056562926       -1.14011068154053        0.60528368522005
C           -1.17311652930879       -0.65061891460170        0.05644883045503
N           -0.07580409050279       -1.23176394606971        0.32189452377906
C            1.16249568397786       -0.84263147074713       -0.15551375404735
N            1.82915214410234       -1.87246069980298       -0.79892558744521
H            1.46934666395889       -2.79102129629239       -0.59099419297856
H            2.83499067240275       -1.81053384238696       -0.80427395606972
C            1.76537973400739        0.33687303995853        0.11074943488632
C            1.17288257802505        1.52048021628632        0.68789523803705
C            0.00533327429496        2.10542030324340        0.38581853028809
C           -0.92163839533273        1.70428314495061       -0.66475237333525
C           -1.39473878976000        0.48187993264234       -0.87945763794918
H           -2.07257321055580        0.27501815222267       -1.69671382794478
H           -1.23761363638642        2.51351380188864       -1.31732823104313
H           -0.23824901389541        3.04774906807116        0.86320318659556
H            1.81694046622111        2.04224646893642        1.39006558644307
H            2.83112306685969        0.40150081916823       -0.07382755569545
H           -3.14402557821517       -0.56419284610420        0.59352369579000
H           -2.21931005126358       -1.79127931382288        1.36606816101436
