20
 energy: -32.797922546205 gnorm: 0.000591812127 xtb: 6.6.1 (8d0f1dd)
N           -3.70270961736297        0.27065492232234        0.36665669708493
C           -2.56830863140206        0.27002142227489        0.16297579548728
C           -1.19022426730600        0.24419029975562       -0.08532125194172
C           -0.51346475264492       -0.92693163393815        0.16869268064194
N            0.71710095739132       -1.23158810271524       -0.34317021241123
C            1.81044410916295       -0.61669082097785       -0.12167453573847
N            2.93446183407590       -1.04103940653604       -0.74483059648210
H            3.76980770331705       -0.48576140061100       -0.69751564221572
H            2.83873091487863       -1.70320669642426       -1.49580937684263
C            2.01740281622687        0.49119696915982        0.84354462994558
C            1.45810441589151        1.68707520829890        0.69704484521542
C            0.50592377975136        2.07762884805556       -0.33696008741867
C           -0.63302434463243        1.45939819635816       -0.66567612118896
H           -1.29034728730175        1.95559221675285       -1.37178862060440
H            0.72362392429515        3.03168628988792       -0.80296966674225
H            1.73562630034254        2.48626510377274        1.37698779823842
H            2.72957614016763        0.29209278868098        1.63246333556174
N           -1.11568477511400       -1.96535906442161        0.82012465248062
H           -0.70960536472556       -2.87699943170422        0.69349370112587
H           -2.11437080921165       -1.91904566749150        0.94633698520459
