23
 energy: -40.765692346100 gnorm: 0.000612044007 xtb: 6.6.1 (8d0f1dd)
N           -2.93480592466644       -2.71716645948684       -0.58088480678253
C           -2.16226323233809       -1.89726832404034       -0.34100109494950
C           -1.24777124195574       -0.87145425939409       -0.06566323524833
C            0.02017104632935       -1.26439406842122        0.45527736957304
C            1.22757288585644       -0.66050384961592        0.30338954763056
C            2.34159216190809       -1.25777108168462        0.91941826366427
N            3.27828410517259       -1.71359525978442        1.40861113963194
C            1.60621090478193        0.49444167492734       -0.55232058796188
C            1.07725619837816        1.72860208507141       -0.46444365481108
C           -0.03977923580860        2.06724865295775        0.41029844551670
N           -1.19309761186490        1.50750950926857        0.40754464026736
C           -1.68656370743617        0.44293396058170       -0.24568003367526
N           -2.82595756558793        0.68078031599676       -0.94252423825717
H           -3.39678425033251       -0.10265300079423       -1.21617811764157
H           -3.26393010642454        1.58070810034563       -0.84372997426332
N            0.12977643954502        3.14797061804724        1.20479868724408
H            1.04905552209408        3.52993766444822        1.33639922014606
H           -0.58349691494924        3.36425983305090        1.87996455580402
H            1.51365908731342        2.54435349433785       -1.02300809354767
N            2.61937596634539        0.20324396922141       -1.42338124505873
H            3.06762290725130        0.96417549682850       -1.90553776572403
H            3.18798563510536       -0.60665368954096       -1.23720083223302
H            0.02673454788416       -2.21577541452104        0.97922105397721
