18
 energy: -29.343374070277 gnorm: 0.000612225250 xtb: 6.6.1 (8d0f1dd)
N            3.19381307845572        0.96961710041763       -0.71310405677822
C            2.13791660198727        0.69138805973382       -0.34893748423044
C            0.84800479657430        0.33888592352822        0.08375318476848
C            0.50300997966081       -0.98622630731213        0.06155374563951
C           -0.73502654860277       -1.52875200334326        0.63007456482178
C           -1.96873050598591       -1.08609989292848        0.37658433048352
N           -2.33094676457210       -0.19885994600209       -0.60101019085071
C           -2.02405167789257        1.02006893913484       -0.65601594607757
C           -1.19708452319075        1.77929859758774        0.28342900337041
C            0.06350598885866        1.46851466426374        0.59029654829152
H            0.63701988077616        2.16935083324242        1.18850417158481
H           -1.62519259789436        2.70548601930677        0.64312639542163
H           -2.42587713452231        1.58129236232044       -1.49729294102913
H           -2.82414782761142       -1.55896483508214        0.84543701368956
H           -0.59949874957500       -2.38693140955257        1.27419123854499
N            1.39715140623711       -1.92719124757760       -0.34363335371097
H            2.26228963313375       -1.63941423094126       -0.76944102988735
H            1.10008664486325       -2.87926963239518       -0.45678610355133
