21
 energy: -36.530603535206 gnorm: 0.000988483773 xtb: 6.6.1 (8d0f1dd)
N           -3.73127510755137       -0.30218757649465        1.04159391336703
C           -2.62986345767589       -0.36446591272069        0.70814552262731
C           -1.30276627601331       -0.38137571272396        0.27340424567540
C           -0.87403092186247        0.76978330314408       -0.55044992602224
N            0.21777908852337        1.42186495510863       -0.43348724069508
C            1.29360691837853        1.23330083582322        0.38813761327411
N            1.59723040175046        2.34808812391609        1.12784279324356
H            1.14774625405012        3.20544619666341        0.85153031074604
H            2.52945176433661        2.42687534730723        1.49705613841415
C            2.12702336815801        0.15712819889688        0.36183992488522
C            1.76994130287583       -1.10526350786818       -0.23922788779413
N            0.66895044080431       -1.75356746397428       -0.05143378536170
C           -0.49225312116211       -1.45359258776370        0.51897780852797
H           -0.89549982171197       -2.26410767100397        1.12220418818596
N            2.74292369151502       -1.76044784765412       -0.92311219547764
H            3.57414861103419       -1.27137010361386       -1.19968167824450
H            2.50363128664618       -2.61934622241393       -1.38726015083433
H            3.11560634461680        0.23829115381416        0.78805699540115
N           -1.75289468092286        1.15324134247302       -1.50560608268242
H           -2.69600611079692        0.80604017405452       -1.47070568434891
H           -1.56781883579220        2.00072001483054       -2.01407822918710
