17
 energy: -29.634433585413 gnorm: 0.000739744498 xtb: 6.6.1 (8d0f1dd)
N            3.79410466837161       -0.16950003088187       -0.79181692440643
C            2.68871761624261       -0.08366613008842       -0.48874524847617
C            1.33612797893220       -0.01659494005528       -0.12638650812779
C            0.56266690532095        1.03388814250024       -0.53011570225958
N           -0.61960827201253        1.40342204235443       -0.02253745178868
C           -1.72022986624465        0.77348492207815        0.16032987924547
N           -2.70991901272520        1.39188198907942        0.83476799512044
H           -2.52104102930005        2.26879492902062        1.28905426873211
H           -3.57317831539460        0.91553794469297        1.02064892708302
C           -2.04106588846430       -0.53798260112688       -0.43484445038593
C           -1.23999926466703       -1.58966452542631       -0.23625906261459
N           -0.25670008899639       -1.66454722909972        0.70964247550549
C            0.83597254814474       -1.04293080981015        0.79475995890425
H            1.47618923854110       -1.30810988394895        1.63245418002822
H           -1.44720323201299       -2.54872816037541       -0.69742366207732
H           -2.94340269148706       -0.61226986303305       -1.01956101669565
H            1.00398828245202        1.78164018631979       -1.18267327788680
