26
 energy: -48.740585365062 gnorm: 0.000809753477 xtb: 6.6.1 (8d0f1dd)
N           -4.07790918702560       -0.59007556893776       -1.19489540808992
C           -3.02418442267980       -0.40844704237978       -0.76554711513542
C           -1.75466457766891       -0.19884890878998       -0.21959421441900
C           -1.34120645814126       -1.16375063581004        0.81090604115733
N           -0.24127776637126       -1.81952566941823        0.81235978374568
C            0.82224537522841       -1.75744777616660       -0.00935422461948
N            1.15359206940718       -2.93400731840673       -0.59411523376010
H            0.65383353432484       -3.76129615271828       -0.31831987265011
H            2.06192321122048       -3.03584268318628       -1.01527810813434
C            1.66458028657393       -0.65936141865401       -0.13492582028663
C            2.94630668057836       -0.87964320329005       -0.65311610689898
N            4.00122611721974       -1.06933690930076       -1.07666480662630
C            1.38330407129241        0.69384812970487        0.29822022232417
N            2.44016661021886        1.35667590712604        0.83048375231680
H            2.38108224939635        2.35058737845790        0.98091512485080
H            3.35183063943538        0.93317462967401        0.79366867411994
C            0.18957688342153        1.37151972741551        0.11896175716166
C            0.17403806266279        2.73351082648346        0.45761900839204
N            0.15741285011658        3.85296879353860        0.72991326751297
C           -1.04442077357782        0.93583436023144       -0.53308761938968
N           -1.54581674550703        1.81326027469300       -1.43687398131849
H           -1.14189109761057        2.73156952623240       -1.51232092582781
H           -2.47549767766751        1.67188460413838       -1.79729542872853
N           -2.23519643494830       -1.39689444013522        1.78998369647536
H           -3.16771572326355       -1.02838777866391        1.71880558361803
H           -2.04330721653570       -2.11666510643885        2.46527564281166
