18
 energy: -28.546986261259 gnorm: 0.000514284581 xtb: 6.6.1 (8d0f1dd)
N           -2.47986279498366       -1.25454217054182       -0.35295304143689
C           -1.39339006716119       -0.46297790051778       -0.08112735366083
C           -0.20375991693518       -1.22863547651849        0.20616537703703
C            1.11914373875849       -0.90945486881991        0.13131942857721
N            1.66206504248401        0.11157639269908       -0.61229390343850
C            1.23801030678501        1.30954660746392       -0.58505335800262
N            0.52115166036172        1.95239566191662        0.35331900833798
C           -0.72342029971225        1.83889267792891        0.61956183658203
C           -1.63785128197764        0.87670353801898        0.11747896203634
H           -2.67660387219555        1.18256998887180        0.08739995291442
H           -1.12426552948117        2.59255366019808        1.29624987382535
H            1.63093780478983        1.97204153727691       -1.35770026806187
N            2.06673419952914       -1.75505545901827        0.64558014436133
H            3.00194477036925       -1.62780025761933        0.29686153706573
H            1.79491016941286       -2.69505610108882        0.87875496059373
H           -0.42406380133795       -2.22742015065374        0.56757116902056
H           -2.32982488271769       -2.20721403048821       -0.63244726368429
H           -3.33597213948799       -0.81724479870799       -0.64481526416671
