21
 energy: -37.318997945121 gnorm: 0.000661804238 xtb: 6.6.1 (8d0f1dd)
N           -2.78675894941488       -2.34842609250837       -1.00646877349535
C           -2.07151215268252       -1.55189991868294       -0.58500223360863
C           -1.21283978702097       -0.55839934700613       -0.07701510819545
C            0.04881879331432       -1.06785055512348        0.39577595393119
C            1.26728801503094       -0.48764841751803        0.33440760470603
C            2.40522849391832       -1.15579305730559        0.81237227847877
N            3.36755442485726       -1.66383568233210        1.18378063126826
C            1.55836200912568        0.77199456625768       -0.42001674969253
N            1.08992573882326        1.92495166603425       -0.16663186640412
C            0.13068776271974        2.26291588094998        0.72678780482902
C           -1.13807785900754        1.82373951818956        0.77102825552586
C           -1.73189272328365        0.72143429606096        0.03005215713189
N           -2.97590475370809        0.96725123198427       -0.43955678054344
H           -3.41668442132478        1.85050424309151       -0.25648651345514
H           -3.51796767741803        0.22750173898322       -0.85516958367450
H           -1.84213367607211        2.36659963163820        1.38812217109235
H            0.41143190230514        3.11052662843086        1.34292873011348
N            2.40897705031919        0.59971702701294       -1.45572474909089
H            2.97513911216074       -0.22954625732090       -1.50649472302498
H            2.70563354301750        1.41479413649281       -1.96498479127166
H            0.00620790764106       -2.08443114382602        0.77733613768013
