21
 energy: -38.103090961736 gnorm: 0.000979498166 xtb: 6.6.1 (8d0f1dd)
N           -3.51505266955074       -1.83170798986746       -1.48815011000713
C           -2.70002456706323       -1.28155029238048       -0.89888872293162
C           -1.68112592092392       -0.63075517347493       -0.16331677659579
C           -1.38489825216244        0.65122014431690       -0.41278892409242
C           -0.36690033282038        1.43925820534555        0.28483002934548
C           -0.82639281705622        2.68843968181559        0.76531243974007
N           -1.21257050158941        3.69339366865123        1.16006979180827
C            0.94634412169765        1.14990048723937        0.39162949273509
C            1.62390659786449       -0.02527891539716       -0.12731955760454
C            2.81535779747980        0.23806041750933       -0.83214755196469
N            3.79013512617398        0.43210387919497       -1.40828622594707
C            1.26206748676027       -1.33047345276288        0.06893409357628
C            0.20156702357194       -1.74065476303707        1.00899813684290
C           -1.08409645781761       -1.44047139848714        0.91496322836302
H           -1.79124436202836       -1.83220378380585        1.63547918750279
H            0.55116192047041       -2.37489519206444        1.81497158895576
N            1.96514139284022       -2.35194110710431       -0.46943813014442
H            2.74578669064978       -2.16544010324386       -1.07629120114893
H            1.73254797540567       -3.30419075511236       -0.25298579446691
H            1.59817938431100        1.91596988706694        0.79827434772130
H           -1.95621663071259        1.19472262409855       -1.15696161708704
