17
 energy: -29.632218753297 gnorm: 0.000620729695 xtb: 6.6.1 (8d0f1dd)
N            3.91387154960241        0.43116518310134       -0.23716106427365
C            2.78170913204748        0.25946830769841       -0.13552167514396
C            1.39771158630137        0.02710772234110       -0.04375599947682
C            0.56418363231913        1.12298096281837       -0.26636697586235
C           -0.78818593429224        1.38403536196281       -0.06020110412892
C           -1.90539843635571        0.55339565999763        0.11969538778530
N           -2.04386904602169       -0.69055664212328       -0.37737045901035
C           -1.10602607890739       -1.55949356515644       -0.44398822819822
N           -0.12374131711418       -1.77457478840180        0.42584550639401
C            1.01147640006252       -1.21404889190953        0.55735688026745
H            1.72420219807120       -1.69193522098715        1.22440475735809
H           -1.21837600334956       -2.33681635494139       -1.19950042603127
N           -3.04492712245864        1.09760904263002        0.59518924973279
H           -3.88344184247862        0.54388649895291        0.57852950565369
H           -3.11606480724291        2.08795362220665        0.74745599709817
H           -1.02625080239103        2.43998818149440       -0.00430863740358
H            1.12883406230790        2.01978363501591       -0.50767437586034
