22
 energy: -41.842563964114 gnorm: 0.000373906513 xtb: 6.6.1 (8d0f1dd)
N           -4.30004301863178        0.07772454930562       -1.55410857739753
C           -3.27752049977871       -0.11427618262896       -1.06883760428654
C           -2.01308283021848       -0.33022339513187       -0.48483733070023
C           -1.40610538155877       -1.54272398227544       -0.67688765793658
N           -0.41399744833642       -2.06109726096216        0.04251384836322
C            0.75108363835294       -1.64662596059648        0.36247441091223
N            1.46135106322175       -2.30321895066449        1.29734705395028
H            1.06925181706625       -3.13191284136870        1.71192492989404
H            2.44760269422461       -2.13337011716532        1.39331077175353
C            1.44576737032886       -0.52002135401988       -0.30891239226480
C            2.67709644236821       -0.81550273317226       -0.90531740913139
N            3.70018759910330       -1.06222608724625       -1.37003468920505
C            0.95281619363527        0.75027630126876       -0.29490324328604
N            1.57045056310359        1.77012475600977       -0.93003629757153
H            1.29498803115457        2.72026625688574       -0.74873257914405
H            2.44364860601939        1.60485953608121       -1.40338979838959
C           -0.24471919167189        1.15520838367787        0.48749668890770
C            0.02574059914667        2.22256422589914        1.37209591176610
N            0.27566184149975        3.09327906371643        2.07728161021095
C           -1.52050841291350        0.72856072432712        0.36321253693763
H           -2.27742651927785        1.27647058577765        0.91534886488032
H           -1.88968468807077       -2.26116882583941       -1.33108994046280
