19
 energy: -33.080312230122 gnorm: 0.000804664319 xtb: 6.6.1 (8d0f1dd)
N            3.27570322943266        0.11443176056279        0.39719718925618
C            2.14015575908306        0.08093812780785        0.19395629313257
C            0.76358617868091        0.05157094113460       -0.06421691735440
C            0.12298892315290        1.28946775449392       -0.06209908680485
N           -1.06689898797393        1.55274954318314       -0.65470774475611
C           -2.13848587723229        0.87080752610126       -0.52202228109776
N           -2.49937064764643        0.06234666070388        0.47504629284633
C           -2.04775676059547       -1.09095695910643        0.80187554530398
C           -0.97556960636791       -1.79913537725131        0.20950105429710
C            0.22027217216694       -1.29263162041199       -0.24966282975704
N            1.11713427904399       -2.17164909982393       -0.77528270309565
H            0.91884028124153       -3.15671193614808       -0.73185636036245
H            2.08150960187944       -1.89584232782979       -0.86419593818428
H           -1.04800190367574       -2.87869355185060        0.24917731412987
H           -2.60134855521107       -1.59726186186621        1.58959668999046
H           -2.93998391603154        1.10219247221196       -1.22258467007240
N            0.78492984431484        2.38895233766803        0.36453889480677
H            0.37705851822277        3.28709418371695        0.17282392501133
H            1.76437171471522        2.33031630830387        0.58759333561027
