17
 energy: -29.632218758004 gnorm: 0.000626667480 xtb: 6.6.1 (8d0f1dd)
N           -3.91361558456947       -0.43223402905166        0.23632359759231
C           -2.78146829020119       -0.26029390460634        0.13496087224452
C           -1.39749451750519       -0.02764820165908        0.04353647307612
C           -1.01135695859764        1.21345090009767       -0.55776406139598
N            0.12369864433600        1.77425520660897       -0.42605345331470
C            1.10577651061737        1.55959810920209        0.44412460821664
N            2.04383667255362        0.69085693942960        0.37797832627634
C            1.90578239633112       -0.55323999983947       -0.11884548295222
N            3.04556846600653       -1.09731433347387       -0.59388131604393
H            3.11695632612606       -2.08767795209415       -0.74591263737695
H            3.88395230078951       -0.54340072731387       -0.57713168081119
C            0.78870010847820       -1.38408515677900        0.06092048268272
C           -0.56378524307527       -1.12328132782637        0.26664815276606
H           -1.12830477087144       -2.02015226063453        0.50800815836246
H            1.02701272006151       -2.44000086297770        0.00534752457112
H            1.21772537851709        2.33711462216551        1.19949909250271
H           -1.72398878579649        1.69101905525214       -1.22513872729618
