20
 energy: -32.784497805711 gnorm: 0.000693585079 xtb: 6.6.1 (8d0f1dd)
N            3.22875990782869        1.57207019097111        0.49157967151418
C            2.25809452710157        1.02858996977066        0.19284751147840
C            1.07762423099678        0.35579608542868       -0.14397452293164
C            0.08282850456687        1.14089738177995       -0.87094959733643
N           -1.16153611711932        1.20765213955482       -0.69578509199144
C           -1.94729527411436        0.58002331587652        0.24677317837784
N           -2.65181067028041        1.47657731944477        1.01418895805369
H           -2.69779950609079        2.42004958538948        0.66488889214190
H           -3.48104740924174        1.13638173312448        1.47172226672520
C           -2.17911215574489       -0.75451748969294        0.30909329532298
C           -1.39236012403136       -1.79173910836375       -0.28755423680477
C           -0.05881642550008       -1.88915199006848       -0.43415495661191
C            1.00788101764401       -1.00599477265980        0.02830512263313
N            2.05749645347881       -1.66387745942486        0.57949393197160
H            2.87263630052912       -1.15382982923300        0.87517596152032
H            2.06995344344694       -2.66710198534578        0.60895855624005
H            0.32541979801988       -2.81627202518958       -0.84524781584850
H           -1.96271627012864       -2.66951106823878       -0.57482398304848
H           -3.05586525155817       -1.08687528732099        0.84976927161749
H            0.47913839409562        1.78693444779687       -1.65378721572367
