16
 energy: -29.156337586159 gnorm: 0.000777357855 xtb: 6.6.1 (8d0f1dd)
N            2.44275505282185        0.04708015625101        1.11182478494656
C            1.50172058865405       -0.04047271466847        0.14971109106317
N            1.22335026185078        1.11830049930147       -0.49524028013451
C            0.04351419085399        1.57240454011535       -0.75655925881628
N           -1.11785382628823        1.23769000684418       -0.21755437529916
C           -1.50160457215207        0.04032370444514        0.14965623983698
N           -1.22320249276916       -1.11814501591341       -0.49582820560873
C           -0.04335355295124       -1.57212571308524       -0.75730337259900
N            1.11798793586600       -1.23766557623726       -0.21808346403423
H           -0.01609598194380       -2.46586686426110       -1.37526560162635
N           -2.44268638375877       -0.04768320910061        1.11168219163897
H           -2.85142613971990        0.80229577710484        1.45877272120451
H           -2.94343502852693       -0.91315830947263        1.21226343830491
H            0.01628701289841        2.46643718083605       -1.37410104046372
H            2.85147769734296       -0.80306257104601        1.45853422879789
H            2.94349875842194        0.91250767208670        1.21283915848895
