21
 energy: -36.535497631853 gnorm: 0.000715920435 xtb: 6.6.1 (8d0f1dd)
N            3.58088290091091        0.53860475483197        0.53654116240314
C            2.45739410346307        0.35698451639455        0.34498279426304
C            1.10844078449565        0.12426199902522        0.09232455662198
C            0.19927200533209        1.16446314514513        0.13901816593217
N           -1.01550594823380        1.15429534020666       -0.45739058731303
C           -2.05371510149142        0.43221481439748       -0.23846795845564
N           -3.16180624614850        0.69766326559497       -0.97146740433053
H           -3.92929922210345        0.05041175281994       -0.95519455619345
H           -3.07149193545705        1.31515442623902       -1.76030501956868
C           -2.19115360375122       -0.58179948122535        0.80348904983212
C           -1.28335911790830       -1.55769438741869        0.99091835529305
N           -0.26026965748249       -1.90999859253160        0.18417432712339
C            0.72570175671004       -1.24311532671834       -0.28740493348129
N            1.54762502700484       -1.85816750537519       -1.17776220134025
H            2.46588757378115       -1.47339767806107       -1.32346256831395
H            1.42502429512556       -2.84746755929634       -1.31559571674495
H           -1.45601305503948       -2.28875734628677        1.77613648732890
H           -3.10423407090984       -0.56864627177929        1.37861163039930
N            0.56395476280062        2.37327483957019        0.64802565794168
H            1.53742647242436        2.53331897793466        0.84838802657925
H           -0.01062163272274        3.16715501943277        0.42385497192348
