21
 energy: -36.538192876544 gnorm: 0.000865511620 xtb: 6.6.1 (8d0f1dd)
N           -2.94906072902570       -1.14438052536256        1.38777835224512
C           -2.05035667729803       -0.68173369045784        0.83140341988473
C           -0.95710672549125       -0.13715306393569        0.15552367187970
C           -0.07365973342649       -1.13549504510432       -0.49405993260142
N            1.19284707981943       -1.23615249656040       -0.35212517006719
C            1.98084783896583       -0.35441415656204        0.33703965632527
N            2.23482631167300        0.86140802507194        0.00502217630136
C            1.50281513008879        1.66704858386714       -0.78889181988448
C            0.17422771100442        1.90990110421164       -0.76516113993803
C           -0.85058010149533        1.22579677135235       -0.00035696021456
N           -1.84877081310335        2.02671337729560        0.45964360109387
H           -1.71758738260447        3.02217139143900        0.46774896657074
H           -2.56899907784142        1.63388693736366        1.04238623888710
H           -0.18685589973605        2.77368319764321       -1.30850057914893
H            2.12143411374578        2.31618751871916       -1.40154451086870
N            2.67681610236899       -0.90540191183769        1.36699534229438
H            3.45444957499878       -0.37718698018013        1.72373985115062
H            2.72585025897625       -1.90790500007000        1.41564306189041
N           -0.71703737490692       -2.04455963377118       -1.25826048961486
H           -1.71751379013585       -2.12442408264067       -1.19977126792715
H           -0.18920093207646       -2.81592780718109       -1.62971122815817
