17
 energy: -32.849147197628 gnorm: 0.000409473546 xtb: 6.6.1 (8d0f1dd)
N           -3.25961561159999       -1.81779846772077        0.00078571837144
C           -2.50533133930625       -0.95124142518244        0.00054058640815
C           -1.62278720235446        0.12731150311051        0.00045204771369
C           -0.26719397201744        0.18138459917044        0.00040650171294
C            0.08078696232409        1.62023180979833        0.00024767909070
N           -1.07922144880052        2.39941729256669        0.00025284399985
C           -2.04896739495134        1.56761373089136        0.00035039681561
H           -3.07627764967241        1.88715169290826        0.00035196421924
C            1.41251104126100        1.76082995886548        0.00018138946023
C            1.98688164696350        0.38864913527583        0.00026652766505
N            3.30775955383757        0.16439074034372        0.00027451981508
H            3.96065984634443        0.92773941364851        0.00019227845239
H            3.65391055362175       -0.78062972989476        0.00036154944368
C            0.97253316473437       -0.55228288735026        0.00042895315229
C            1.14560270436310       -1.93607705346301        0.00084036890269
N            1.33938881049669       -3.06923474247998        0.00032179510966
H            2.00385700825589        2.65692548331213        0.00010993876732
