17
 energy: -32.856864105980 gnorm: 0.000835562953 xtb: 6.6.1 (8d0f1dd)
N           -4.22465620218079       -0.81896225759290       -0.00114572779751
C           -3.17974509271266       -0.34095646389022        0.00050471064538
C           -1.92713879338153        0.27221484060571       -0.00012179004978
C           -0.69085940796733       -0.28813661845094       -0.00038168564546
C            0.30908293753683        0.80566020835857       -0.00029055705604
C            1.51873639385052        0.20766127744617       -0.00045553619753
C            2.82098281684203        0.69697133751081       -0.00070951950279
N            3.91936066311689        1.03678353336577       -0.00023932946570
C            1.19034926942416       -1.28379275305653       -0.00062416650855
N           -0.08465596555966       -1.51873768491814       -0.00050935817537
N            2.14473241446219       -2.21240604762074       -0.00083288261792
H            3.11654485023440       -1.95442053929854       -0.00091266720405
H            1.87869827478448       -3.18239475850537       -0.00095006002200
C           -0.42133082611436        2.06042384135644       -0.00012983006200
C           -1.72884732745178        1.75408442344130       -0.00003196589583
H           -2.55755522443508        2.43891135209252        0.00022338831936
H            0.02634950985170        3.03553850045608        0.00005048483581
