13
 energy: -25.139971160205 gnorm: 0.000831729662 xtb: 6.6.1 (8d0f1dd)
N            3.43277597467878        0.79585618860472       -0.00097465317786
C            2.35932360164436        0.38674988935947        0.00274451520468
C            1.06497123823318       -0.13140443547923        0.00079563858131
C           -0.14087962022093        0.46831242864555        0.00143641219827
C           -1.14576031273218       -0.63631259797620        0.00049301267536
N           -0.50232086376914       -1.87953342928075       -0.00032350558622
C            0.74026241516737       -1.62628536403373       -0.00005497499688
H            1.49087640399821       -2.39679883379860       -0.00021190806109
N           -2.34700996766232       -0.21446403651749        0.00014388857039
C           -2.23552048650986        1.21405510093373        0.00109900492149
C           -0.96404259614502        1.66087560913019        0.00164764697045
H           -0.61952964090238        2.67511078326659        0.00235686073987
H           -3.14934592418009        1.77747161614576        0.00119429516023
