17
 energy: -33.644837417557 gnorm: 0.000794582544 xtb: 6.6.1 (8d0f1dd)
N           -1.99821708045228       -3.08631599791080        0.00100141396405
C           -1.16634755934608       -2.29666271321642       -0.00038635240643
C           -0.15888418144248       -1.32348634220174        0.00012479024991
C            1.18587176052558       -1.52019452638658        0.00006978473651
C            1.87171005910199       -0.21509944104584       -0.00025691502517
C            3.26442106918011       -0.06599634590763       -0.00131368231117
N            4.40530622579407        0.05562005363741        0.00103893785790
C            0.91745769923367        0.76159012497191       -0.00015036722041
C           -0.38176254098929        0.12526602857228        0.00006867269122
C           -1.33393233313567        1.09899295176806        0.00027989388510
C           -2.72690379776022        0.96720081868753        0.00215222931662
N           -3.87137087474072        0.88205402582778       -0.00205344343532
C           -0.62738244067867        2.40750538920119       -0.00010990770516
C            0.70135499432440        2.20333623263592       -0.00036075405960
H            1.47809906803871        2.94355660695607       -0.00047174646707
H           -1.15025527788673        3.34520018578293        0.00005672300964
H            1.70173275973364       -2.46252802647208       -0.00009823798063
