16
 energy: -28.339716384877 gnorm: 0.000753984778 xtb: 6.6.1 (8d0f1dd)
N           -3.76287389293986       -0.35821936106169       -0.00110692708545
C           -2.61364358882634       -0.41686799292252       -0.00158966167236
C           -1.21902703607375       -0.39182066120660       -0.00060793889219
C           -0.33582550491913       -1.44647498590025        0.00021264020088
C            0.98380899223975       -0.90474490396251        0.00059041042944
C            0.88645972919426        0.52656169963819        0.00020272150248
C            2.22871336667976        0.98203734862285        0.00063139483865
N            3.07255076887019       -0.03538151856595        0.00129413544625
C            2.33742512977157       -1.18564652446224        0.00122459645443
H            2.84031474784401       -2.13552656444208        0.00173365647460
H            2.59472160065716        1.99351940018988        0.00052744881123
C           -0.46229036232069        0.87308155649328       -0.00049766857315
N           -1.04220551768813        2.06778456707539       -0.00109848848525
H           -2.04794338634166        2.13918525128186       -0.00158601374430
H           -0.49043716534853        2.90907336753212       -0.00106221869650
H           -0.60200275499862       -2.48805166530971        0.00026458719129
