14
 energy: -20.086487286523 gnorm: 0.000415979486 xtb: 6.6.1 (8d0f1dd)
C           -2.14748263042563        0.05360842398797        0.00029680505305
C           -1.38796443910651        1.16427517898467        0.00067196558637
C            0.00599533731718        0.72835873068678        0.00085638034847
C           -0.00609912251403       -0.72840619090392        0.00064519176110
C           -1.28816288300627       -1.14395942343200        0.00027853520390
H           -1.67013345580152       -2.15001973597223       -0.00004459968939
C            1.38786080221486       -1.16432269745673        0.00071997064478
C            2.14737890473898       -0.05365603925614        0.00092035444525
C            1.28805917062532        1.14391181432007        0.00098007904176
H            1.67002978482904        2.14997222137391        0.00108240813865
H            3.22147021757422       -0.00427812352916        0.00103831179970
H            1.71966295730963       -2.18555629617796        0.00066125655239
H           -1.71976664780304        2.18550869020002        0.00082588317766
H           -3.22157387075226        0.00423041947468        0.00006953083633
