18
 energy: -38.160024519996 gnorm: 0.000450043410 xtb: 6.6.1 (8d0f1dd)
N           -3.58636204851292       -2.16355659216375       -0.00028302189925
C           -2.49024928255923       -1.82675685652386       -0.00012889626178
C           -1.15597228748603       -1.39902700783762       -0.00014778440562
C           -0.03391137318656       -2.16682585941914       -0.00027609725647
C            1.15493273454692       -1.29691894374659       -0.00017589557348
C            2.47114119930459       -1.77807001850654       -0.00045326810158
N            3.54246852138832       -2.18738839148971       -0.00007576886034
C            0.72018258468342       -0.00140843863982        0.00003295921967
C           -0.72016268580917        0.00143429618506        0.00003308439408
C           -1.15491300689671        1.29694460964926        0.00017048953598
C           -2.47112282131817        1.77809599442059       -0.00012712722219
N           -3.54245996969724        2.18741569818328        0.00084345016338
C            0.03393076092376        2.16685148666781        0.00031696946978
C            1.15599191811910        1.39905290214396        0.00027210142072
C            2.49026878082963        1.82678345092735        0.00051746262321
N            3.58638250846870        2.16358157434927        0.00003402699976
H           -0.01601624971833        3.23969546540126        0.00044319273893
H            0.01603533471990       -3.23966984640081       -0.00044096608480
