12
 energy: -25.412858176982 gnorm: 0.000576113269 xtb: 6.6.1 (8d0f1dd)
N           -3.40711980716085       -0.81135042560893       -0.01086295445223
C           -2.33118691150373       -0.41079188832197       -0.00406247902063
C           -1.04096958218852        0.11737949966913        0.00065030238907
C            0.17763859422405       -0.45292327821089       -0.00268952063515
C            1.17036765119953        0.66644999418354        0.00796473637003
N            2.35882084236683        0.20523933073303        0.00666905259312
C            2.13562482873521       -1.21598710050907       -0.00537976758704
N            0.92009550266362       -1.62233128851286       -0.01091395526405
H            2.98312079282660       -1.87549855326597       -0.00918190944792
N            0.50643139547617        1.89850445260338        0.01684536715965
C           -0.73125013268351        1.61825291672271        0.01303217940989
H           -1.49387989715538        2.37791428191790        0.01827076148530
