15
 energy: -24.609836946094 gnorm: 0.000392683085 xtb: 6.6.1 (8d0f1dd)
N           -3.86687100692536       -0.05187314520350       -0.00214024409918
C           -2.71949989792349        0.01039131157636        0.00036636913179
C           -1.32195449350165        0.06522184859097        0.00004146147543
C           -0.54193281098058        1.18132783951413        0.00008579792458
C            0.83355392475241        0.73215859396843        0.00069654096813
C            0.81645371005648       -0.72479824733700        0.00080892169761
C            2.20986289393119       -1.16324375289818        0.00143833907463
C            2.97306132809448       -0.05267616381472        0.00163395317451
C            2.12267560180792        1.14391416844103        0.00117027216706
H            2.50394878763708        2.14980159373949        0.00123309730580
H            4.04680092427201       -0.00923991054103        0.00208405852031
H            2.53921046602276       -2.18480021126912        0.00171640889167
C           -0.46131471286869       -1.14656139030070        0.00032764214067
H           -0.85423388674741       -2.14747490780236        0.00036136640297
H           -0.87889499872712        2.20096828993621       -0.00000743877596
