16
 energy: -29.129953783027 gnorm: 0.000740550964 xtb: 6.6.1 (8d0f1dd)
N            4.69389845784967       -0.04550499810528       -0.00107493887317
C            3.54747257448127        0.01386459270073        0.00092078212538
C            2.14729729625018        0.06462417340770       -0.00002555543856
C            1.29435950128919       -1.14704777170945        0.00009144381428
C            0.01070553112212       -0.72924283545878        0.00002415219042
C           -0.01071484826133        0.72907155920422       -0.00025653938638
C            1.36628181830141        1.18040649384093       -0.00043136070445
H            1.70066846381209        2.20062203003903       -0.00054406831149
C           -1.29436694827217        1.14687706185242       -0.00025018459684
C           -2.14730643819593       -0.06479520763851       -0.00003004677498
C           -3.54747107155072       -0.01403333030346       -0.00031292696657
N           -4.69381628954995        0.04529272333704        0.00060606896261
C           -1.36629078288044       -1.18057853746839        0.00023451715857
H           -1.70067776291912       -2.20079399247259        0.00045210644785
H           -1.68759364772953        2.14762067577203       -0.00045823514199
H            1.68758803655323       -2.14779100619767        0.00042836159530
