19
 energy: -31.511511266080 gnorm: 0.000808280356 xtb: 6.6.1 (8d0f1dd)
N           -4.04262661104882        0.05167257271111       -0.04585567947788
C           -2.90708326044300       -0.14747577471169       -0.04228358864784
C           -1.52852041400652       -0.32217219309286       -0.03060334529199
C           -0.81346783551023       -1.54009704838357       -0.02205461326518
C            0.54094067537426       -1.23746653778939        0.00602773184552
C            0.69429855368320        0.18644523314677        0.00685255960374
C           -0.59751646799533        0.76032214474163       -0.00257591646911
N           -0.94853882979505        2.06120666434757       -0.01211551428785
H           -1.92502614241361        2.29025594971503        0.08098985391422
H           -0.27753638918718        2.77664280534655        0.20329052387540
C            2.06957984381710        0.46638613596955        0.01005342981362
C            2.75605215779862       -0.79112514141054        0.03491686636910
C            1.83840191548560       -1.81350534978327        0.02915499724322
H            2.06593451953536       -2.86413286696114        0.04013076627538
H            3.82606505853262       -0.88973296345308        0.04906440714962
N            2.68557487190595        1.66548620976740        0.01178835884388
H            3.68383515394006        1.69887178556005       -0.10468457373790
H            2.16896442271557        2.50519940515499       -0.17970272108202
H           -1.26951057388898       -2.51388759777476       -0.03558374577392
