15
 energy: -28.608763341334 gnorm: 0.000517024609 xtb: 6.6.1 (8d0f1dd)
N            3.37797521724562        1.58957685545447       -0.00106270346786
C            2.46981116227734        0.88518192857153        0.00180156542079
C            1.39554606706561       -0.00112509232275        0.00066162213761
C            0.05372892881947        0.20846283319377        0.00035569914234
C           -0.57240634726431       -1.14228432334339        0.00041439056291
N            0.41723305239053       -2.12883956793122        0.00046008361662
C            1.52746135509080       -1.49094421461615        0.00058037123614
H            2.47342476152720       -2.00501109297457        0.00084156831789
C           -1.89487951376351       -0.95690182961973        0.00035486447722
C           -2.03918744691971        0.54498352986757        0.00026379031512
N           -0.90288236918864        1.18764084321624        0.00032896978304
N           -3.22575542124524        1.14939519184797        0.00016203852930
H           -3.25523039091841        2.15516909177705        0.00009548270474
H           -4.08038551873407        0.62191961980789        0.00017115144153
H           -2.71158354358267       -1.65075897792868        0.00037327578263
