18
 energy: -32.590351417695 gnorm: 0.000301721535 xtb: 6.6.1 (8d0f1dd)
N            4.86856654977620        0.04855243954812        0.00040411761357
C            3.72064417488992       -0.00051386326378        0.00001968928804
C            2.32259860678525       -0.05991119667980       -0.00013019568140
C            1.55715416889342       -1.27753605640879       -0.00015343557931
C            0.22974807145587       -0.91807124065164       -0.00038159365187
C            0.14364110279923        0.51593018663970       -0.00049068706561
C            1.46363578986166        1.03150233149758       -0.00032115926523
H            1.76230662311694        2.06399926664692       -0.00036290182187
C           -1.19727336312669        0.87262301986382       -0.00072016490335
C           -1.97120423232551       -0.39184217675774       -0.00077007212208
C           -3.36553782135732       -0.40152389497385       -0.00108891518888
N           -4.51411801022155       -0.33549442006650       -0.00103903737523
C           -1.09998718102872       -1.44945746410195       -0.00054599727700
H           -1.37226122606529       -2.48935663826570       -0.00053934232487
N           -1.77378040109851        2.06904038494025       -0.00090272560862
H           -1.21866415527183        2.90835549651323       -0.00087612122041
H           -2.77900403968104        2.14573900200521       -0.00105918331935
H            1.98256177239797       -2.26436614788505       -0.00003726509652
