14
 energy: -24.878999516438 gnorm: 0.000167983994 xtb: 6.6.1 (8d0f1dd)
N            3.37160819545519        0.86314984362210       -0.00056273432662
C            2.31456221257828        0.41337492120135       -0.00046657359580
C            1.04096362978201       -0.15514864933174       -0.00026176973468
C           -0.18883670694810        0.41193807313725       -0.00053431318725
C           -1.14994143940033       -0.69397504909704        0.00003724345996
N           -0.47968879155368       -1.91868101335510        0.00054094605074
C            0.76448898292854       -1.63766785464519        0.00040030620078
H            1.53027481855572       -2.39217699980776        0.00070317899525
C           -2.39607420995529       -0.18658787479522       -0.00003612277885
C           -2.26250210592508        1.29047265890429       -0.00068794887999
C           -0.96736254430729        1.64874876519556       -0.00095336912374
H           -0.55329653911972        2.63872085981924       -0.00146206243667
H           -3.11162982479131        1.94897528846750       -0.00091488867505
H           -3.33555806819891       -0.70687632781524        0.00030900793193
