16
 energy: -28.342936513643 gnorm: 0.000212420668 xtb: 6.6.1 (8d0f1dd)
N           -4.17682479007038       -0.35238649961430       -0.00200214717102
C           -3.03830563246558       -0.19581844393476       -0.00148447136703
C           -1.65181968116982       -0.00664636305081       -0.00028501342318
C           -1.00086258341250        1.25993125637934        0.00097109336048
C            0.36349666537507        1.01025293348708        0.00175023874757
C            0.56546313744990       -0.40557360017468        0.00095860564964
C            1.95826984510657       -0.58045476313349        0.00168582039195
N            2.60587181155866        0.65394593798502        0.00283826958348
C            1.67166321540295        1.57506199461828        0.00292975766890
H            1.94269540785229        2.61646504195541        0.00372258473258
N            2.68862023882321       -1.68507230677547        0.00139265225901
H            3.69201180175547       -1.59627148480467        0.00205324831645
H            2.26168032573137       -2.59555083414314        0.00053415975087
C           -0.69399195944426       -1.02975701451509       -0.00034059389793
H           -0.90804575011562       -2.08339804235450       -0.00114591110195
H           -1.50213855927732        2.21051489947581        0.00130583630020
