13
 energy: -25.147798699301 gnorm: 0.000167117214 xtb: 6.6.1 (8d0f1dd)
N            3.35477069983925        0.85778033849382        0.00005557353892
C            2.29040970795584        0.42702936178391        0.00015589776091
C            1.01711205898733       -0.14175971154334        0.00028513866582
C           -0.22005852049149        0.40320174391443        0.00052783933493
C           -1.17897206273108       -0.71686387063768        0.00066681589501
N           -0.48785502096713       -1.93421867714352        0.00040112441128
C            0.74929594301888       -1.63207446287855        0.00018938074333
H            1.52527894655253       -2.37684022553218       -0.00003535713420
C           -2.40667869474298       -0.17604119715683        0.00114463532771
C           -2.14781420479919        1.29729393096127        0.00118685125305
N           -0.90729908913255        1.61837697863326        0.00081732134527
H           -2.91804848752684        2.04848678560365        0.00148774037081
H           -3.37698176716257       -0.63117916849823        0.00144926918715
