17
 energy: -27.263240336751 gnorm: 0.000583049885 xtb: 6.6.1 (8d0f1dd)
N            1.90240098712912        1.82849254469568        0.02954501414604
C            1.37855602236965        0.58155886322066        0.01552525906849
C            0.03831796579306        0.19596495668159        0.00153071011103
C           -0.00779054505613       -1.23458244796367        0.00093411995515
C           -1.35051800454449       -1.56856263087294       -0.04988244150933
N           -2.14187300901306       -0.46923285994826       -0.06648229793837
C           -1.32765815103983        0.59866550257341       -0.02838411876460
N           -1.83477123162114        1.85026819269911       -0.05946336111355
H           -2.83274785596057        1.92223149289113        0.05473919149267
H           -1.27411506986380        2.62062310216167        0.26022325810477
H           -1.80791741365441       -2.54215796369953       -0.07368210355403
C            1.33423079623222       -1.71372892430840        0.03644620243545
C            2.16386044745676       -0.62462724142298        0.04941260488253
H            3.23926097780357       -0.63568304352938        0.07316030804391
H            1.64064630417377       -2.74409435001044        0.05070041550799
H            1.32130912717270        2.61297405592312       -0.21013259532747
H            2.89208796102249        1.93185112440925       -0.11950604774078
