18
 energy: -26.977812390432 gnorm: 0.000435542431 xtb: 6.6.1 (8d0f1dd)
N           -1.81203761994295       -1.87011238153625       -0.02756139386684
C           -1.34556756613610       -0.59476410794545       -0.01807484882681
C           -0.00009286774452       -0.16607069718881       -0.00122763172152
C            0.00013230219309        1.25468389591734       -0.00052476621198
C           -1.33997028576713        1.68947839639550       -0.04337490172597
C           -2.15580329243317        0.56951851116495       -0.05879968657090
H           -3.23041333946362        0.56270583978865       -0.08519153069388
H           -1.68216154059376        2.70966523860540       -0.06249324688076
C            1.33868697543532        1.68878254353999        0.04362420724414
C            2.15584611527093        0.56763163616990        0.05835339425285
C            1.34729309362695       -0.59510133969882        0.01617612044094
N            1.81175367555070       -1.87159014944018        0.02546381785393
H            1.20317101239629       -2.60794954769968       -0.28880164772151
H            2.79512988057767       -2.00779676560990       -0.14302687359428
H            3.23044948491234        0.56226073351099        0.08505366484863
H            1.68160532867943        2.70874432931753        0.06408092041679
H           -1.20367236595162       -2.60866783846395        0.28189427592662
H           -2.79543523240980       -2.00573447202721        0.14099076653058
