14
 energy: -24.074741214987 gnorm: 0.000313757127 xtb: 6.6.1 (8d0f1dd)
N           -3.01326674732391        0.00521683020277       -0.00360862413404
C           -1.67230174657798       -0.08622109738165       -0.00248764447966
C           -0.89079680369056       -1.20301088184450       -0.00254051148600
C            0.46100262856981       -0.74847148971116       -0.00123042787373
C            0.43736380079545        0.75516920149544       -0.00038475611842
N            1.76771583596520        1.16779238297219        0.00090309534344
C            2.42031995061169        0.06020882935104        0.00078793239104
N            1.68660834168721       -1.15421704406925       -0.00049516859609
H            3.49515463453322        0.01977594547271        0.00158594278772
C           -0.82616305078653        1.16845213864361       -0.00112991958316
H           -1.23770909794323        2.16064985185998       -0.00088805352549
H           -1.21657025541154       -2.22343758866936       -0.00338292429864
H           -3.57919714122601       -0.82481304883779       -0.00410022430111
H           -3.46434180560280        0.90216006151597       -0.00281561182587
