15
 energy: -23.799826981789 gnorm: 0.000639099800 xtb: 6.6.1 (8d0f1dd)
N           -3.04202428752244       -0.03877160129968        0.10539263413534
C           -1.68474605654090        0.08647886830485        0.03165480478455
C           -0.93067760636501        1.21342660150633        0.02379190553476
C            0.45132342892790        0.79426008237620        0.01075513747831
C            0.45256815946869       -0.68628720224275        0.01422660121457
N            1.76930257829820       -1.17021412208909       -0.00337529156109
C            2.49986137792145       -0.11520089891920       -0.01494595146145
C            1.74539778087562        1.16126635830302       -0.00895352920995
H            2.19841454506743        2.13407576594824       -0.01698809654704
H            3.57497214817201       -0.18497080125286       -0.02866077765335
C           -0.80804140216203       -1.12766191909977        0.02912127212738
H           -1.18368893664332       -2.13431387003312        0.03982195886609
H           -1.27939767886274        2.22763393628253        0.02615331530957
H           -3.59250485357403        0.78338965006775       -0.07906017278557
H           -3.44510525876084       -0.91408393125248       -0.18411293683211
