17
 energy: -27.252841856956 gnorm: 0.000877747521 xtb: 6.6.1 (8d0f1dd)
N           -3.46635988253512       -0.06485702837364       -0.06082865078753
C           -2.11229923383576        0.06983620562797       -0.00077392687110
C           -1.37666563291696        1.21321214155283        0.00457259311707
C            0.00474675920858        0.81608555334464        0.01011512590260
C            0.03217033714688       -0.67498135994846        0.00737069642973
N            1.33666155793451       -1.14379927605377        0.01216004976117
C            2.06777817554843       -0.06772149284844        0.01733285359149
C            1.28855348377722        1.20708757476478        0.01683291935059
H            1.73226231750291        2.18470714477735        0.02196399217047
N            3.41222363310268       -0.08881920972484        0.06075939021147
H            3.93346312861163        0.75081367241776       -0.11565198212613
H            3.87135217316940       -0.97725441470224       -0.04133373558192
C           -1.22626106865444       -1.12935693577783       -0.00181537225725
H           -1.59068082931721       -2.13937714094227       -0.00905145986137
H           -1.74380592069867        2.22140231499982        0.00579132666393
H           -4.02877936147910        0.74769340511203        0.12772904437372
H           -3.86171091406495       -0.95381329842570        0.19305366631308
