20
 energy: -35.242912888841 gnorm: 0.000589826476 xtb: 6.6.1 (8d0f1dd)
N           -3.90661247612196       -0.70533317400308        0.00021971274731
C           -2.78479897593338       -0.43777401531628        0.01403505312217
C           -1.43240380621787       -0.12297695720413        0.02057765304686
C           -0.36849241996040       -1.07372208370186        0.00643619989943
C            0.83707986900369       -0.34908201245349        0.00731641589646
C            0.52008452011924        1.05377368298009        0.00393119681391
C            1.74682157833128        1.71423898992838       -0.01719288935258
N            2.76802642568000        0.84996046660065       -0.01568803951021
C            2.24196343464105       -0.40100874620546        0.00373456018609
N            3.06364489479685       -1.48046213630591       -0.03080647529690
H            2.72649589853637       -2.35830701464371        0.32540070066253
H            4.03834544047015       -1.27582574055344        0.12012974379275
H            1.94752466589896        2.77128393728705       -0.02592812378359
C           -0.88746489291645        1.18999206423338        0.01668857606291
N           -1.60225430217621        2.32438970800820        0.03082993181509
H           -1.14123475295891        3.21498743777521       -0.01223012052027
H           -2.60694117175004        2.28682514678313        0.01334651428997
N           -0.54443042869963       -2.40877386687678        0.02093358171723
H           -1.47625385024318       -2.77346718117940       -0.08863201944358
H            0.22807873210050       -3.02018793235253       -0.17357946924559
