17
 energy: -28.065769845869 gnorm: 0.000382425151 xtb: 6.6.1 (8d0f1dd)
N            3.74073728805039        0.35038760977461        0.00079030888299
C            2.59058537190153        0.41376589366207        0.00014435412910
C            1.19940165023611        0.39807027485790        0.00031895634618
C            0.42713011340119       -0.87180053065474        0.00003456381518
C           -0.90868182603238       -0.52395135810280        0.00003214259469
C           -1.00446063413375        0.90620891481471        0.00035896017818
C            0.31877449749189        1.44868848278153        0.00057385384827
H            0.58395681988427        2.49078253928636        0.00079895408390
C           -2.34183009965113        1.24747838615981        0.00034494717276
C           -3.09284421256773        0.03565269836884        0.00001117846687
C           -2.24100396031292       -1.04097711236330       -0.00018235329517
H           -2.52330885178767       -2.07845459892019       -0.00045624177177
H           -4.16650954337255       -0.01159047567056       -0.00007893022083
H           -2.76574006938097        2.23574501244201        0.00054092326279
N            1.01873672511541       -2.06671719600216       -0.00022662952381
H            2.02391567547163       -2.13061904981794       -0.00018365879428
H            0.47213504598669       -2.91044069291614       -0.00045166267502
