16
 energy: -28.328832849893 gnorm: 0.000588614003 xtb: 6.6.1 (8d0f1dd)
N            2.77750831336227        1.99776139421386        0.00135761905446
C            1.90819605316900        1.24307563141796        0.00111300611418
C            0.88399296527628        0.30229292213813        0.00054954823903
C           -0.54559362607650        0.56471116761908       -0.00060872656293
C           -1.21559119036953       -0.75318948765308       -0.00032939899607
N           -2.60554678005686       -0.58463710148293       -0.00136617055693
C           -2.77893303169816        0.68692449725967       -0.00233608490006
C           -1.52505802893036        1.48333402160495       -0.00189094662787
H           -1.47995294720874        2.55469205081004       -0.00255499416919
H           -3.76786778897991        1.11265616655986       -0.00326890268558
C           -0.29751957320914       -1.72819518110822        0.00099265364359
C            1.03350430184218       -1.06840171194749        0.00158854370880
N            2.18039805150113       -1.77060651543792        0.00198295051018
H            3.06176113264275       -1.28686907911881        0.00460397871630
H            2.16857590121231       -2.77415477825427        0.00633467579037
H           -0.43375384017669       -2.79374385602080        0.00156304472170
