19
 energy: -36.309579729745 gnorm: 0.000636930460 xtb: 6.6.1 (8d0f1dd)
N            3.98147670527554        1.46729922322415       -0.00508865001674
C            2.94868868354856        0.95723950576797       -0.00324049832317
C            1.74221778940865        0.27439289610009       -0.00409937487958
C            0.44406865405257        0.69090166713333       -0.00314768220268
C           -0.36978127051631       -0.56648177744684       -0.00397556600392
N            0.41700841279827       -1.67624966505296       -0.00538554467706
C            1.64810253551262       -1.22554930556914       -0.00552808974910
N            2.72261070288433       -2.00500435136084       -0.00664335414961
H            3.64571747318819       -1.60456914189655       -0.00669217499153
H            2.60245341257888       -3.00405538963477       -0.00747141392593
C           -1.68179887660540       -0.22184446117728       -0.00295499375548
C           -2.83904656224674       -0.99151927651071       -0.00291386136228
N           -3.84316765524821       -1.55424630001246       -0.00304112016830
C           -1.71675165093991        1.27925971431777       -0.00168462730309
C           -0.44087149415254        1.78955120900688       -0.00188408759566
H           -0.16846347271324        2.82655868559515       -0.00112601860719
N           -2.88543253306805        1.93059955858489       -0.00053302271107
H           -3.74861749933489        1.41311947267755       -0.00053664337071
H           -2.91278483112232        2.93532834645374        0.00035256759307
