16
 energy: -29.128152993430 gnorm: 0.000612694058 xtb: 6.6.1 (8d0f1dd)
N           -4.12913080481464       -0.45568672479713       -0.00077859845582
C           -3.03263739675767       -0.11454256633633        0.00118621615867
C           -1.70043491823420        0.30980631440863        0.00029739038500
C           -0.57027318818999       -0.44918527755738       -0.00010891062093
C            0.57028695155873        0.44898101597441       -0.00011348882452
C            0.06050964550133        1.81327262866615        0.00018047877424
C           -1.28136631402474        1.73798633694154        0.00040621435590
H           -1.98690979633988        2.54748293925884        0.00076294647527
H            0.66490008111057        2.70006330133704        0.00030487795384
C            1.70044860440344       -0.31001033314354       -0.00041117738948
C            3.03264969986931        0.11434142538553       -0.00065590686860
N            4.12914282172476        0.45546740593772       -0.00040166090390
C            1.28138026482441       -1.73819061651310       -0.00059884635510
C           -0.06049544448277       -1.81347725000138       -0.00040095190583
H           -0.66488584026465       -2.70026806307504       -0.00046223591709
H            1.98692381571595       -2.54768726098597       -0.00085020526163
