18
 energy: -36.594600976609 gnorm: 0.000439878810 xtb: 6.6.1 (8d0f1dd)
N            3.91950193552403        1.49876242505345       -0.00086379975624
C            2.89087007223388        0.98362490527796       -0.00152781374657
C            1.69815006772491        0.27203732094475       -0.00129117145449
C            0.39174171047414        0.63957690107433       -0.00095735682108
C           -0.39138499703999       -0.63947303941145       -0.00123930281416
N            0.42732748158944       -1.72251473846576       -0.00165827184440
C            1.64488326674696       -1.23224175577706       -0.00164402127040
N            2.74104044781126       -1.97804198042594       -0.00199112496382
H            3.65165338975817       -1.54910376932891       -0.00198702914935
H            2.65101930509419       -2.98058944210348       -0.00225200505690
C           -1.69779621102898       -0.27193319157348       -0.00120883319167
C           -2.89052298133541       -0.98352161206414       -0.00208861904610
N           -3.91916028502349       -1.49865607776303        0.00006746055274
C           -1.64452895775106        1.23234523696017       -0.00061658118366
N           -0.42697664686661        1.72261909195075       -0.00053836799669
N           -2.74069321829932        1.97814670402119       -0.00036349963866
H           -3.65130483589542        1.54920609306640       -0.00043739834320
H           -2.65067289991677        2.98069357876423       -0.00007222687537
