22
 energy: -37.144876396697 gnorm: 0.000638770963 xtb: 6.6.1 (8d0f1dd)
N           -3.13255416386348       -1.42208766552384       -0.07121924307003
C           -2.37793014443865       -0.29515476184505       -0.01487784815063
N           -2.98710613605098        0.91725835346999        0.03324472218733
C           -2.02803909857503        1.82912250312069        0.06025647088310
C           -0.73570991454952        1.25273485803411        0.03290857193849
C           -0.96817984996807       -0.17192562380810        0.01474012155606
C            0.08835654180768       -1.09013547576108        0.04474484368681
N           -0.10425272331712       -2.43247958172763        0.09907650841715
H            0.70748154715279       -3.00658521997679        0.25580359776254
H           -0.97670167036973       -2.77984813414948        0.45974384012634
C            1.38323115981601       -0.53446994207413       -0.00680182975893
C            2.66831596620066       -1.08564555358170       -0.02372176515400
N            3.62035011470631       -0.13551874662372       -0.04980405657594
C            3.00306344512453        1.03991480253331       -0.04710356126791
C            1.59600391228732        0.89444326757828       -0.02379113760752
C            0.54020035731473        1.79206978940252        0.01026850756277
H            0.70207568084245        2.86011113045533        0.01087813487124
H            3.56487607662443        1.95618808624632       -0.05669837582037
H            2.95482362443260       -2.12325666317218       -0.02823257924199
H           -2.27328927600897        2.87531670390491        0.09119277148833
H           -2.75400680187608       -2.22546566861266       -0.54612131663581
H           -4.11630890699189       -1.24991682208910       -0.21524284899701
