28
 energy: -43.466988467760 gnorm: 0.000451737684 xtb: 6.6.1 (8d0f1dd)
N           -3.59230567547715       -1.34058374832686       -0.05143616186188
C           -2.85214135017204       -0.16144862752387       -0.02920983362149
C           -3.39277490496845        1.13751353243860       -0.00323125241358
C           -2.36273514113965        2.05723694069830        0.00548215848630
C           -1.13516565984678        1.35704574549441       -0.01550730603297
C           -1.44572183140534       -0.05334153882173       -0.01346676818052
C           -0.42964642776415       -1.01881085380367        0.05620656928723
N           -0.72792420716821       -2.36120686994698        0.19238891726044
H           -0.00166521842104       -2.90328735112821        0.63712070973569
H           -1.64465090671703       -2.53318284813355        0.57983619415430
C            0.88722481954859       -0.55886860455621       -0.01375207260087
C            2.13320768138858       -1.24123650157307       -0.03925440414254
C            3.16304114641601       -0.29644206593800       -0.01684059813526
C            2.60397309596287        0.98082218608804       -0.00486564407182
N            3.29053387946047        2.16100832161015       -0.05041961764842
H            4.25732327113212        2.14266785735083        0.22886785609876
H            2.77987976733252        2.99264443739636        0.19435329520608
C            1.18291536444753        0.85185188402607       -0.02241919626955
C            0.17727234138390        1.80114153407196       -0.01105541107435
H            0.39744349243419        2.86084481562167       -0.00914447662500
H            4.21492198267497       -0.52114951640413       -0.02420545038756
N            2.30881925704115       -2.61094377873822       -0.06268940449498
H            3.25673959651903       -2.89593078588152       -0.26531770055237
H            1.62418892963980       -3.11716740555325       -0.60556740207962
H           -2.46955261660053        3.12719033721496        0.01934821676972
H           -4.44585553082824        1.36143082919143       -0.00215958775321
H           -3.22652312993453       -2.04475188962285       -0.67905399841438
H           -4.57758211673852       -1.17604858075057       -0.21172156813817
