24
 energy: -46.175464328188 gnorm: 0.000534680447 xtb: 6.6.1 (8d0f1dd)
N           -2.51561994407520       -3.55015734543671        0.00029645386655
C           -2.08839043189393       -2.48274641898429        0.00141233880765
C           -1.67341468085035       -1.15176106517546        0.00091702375881
C           -2.62376434250573       -0.03061567749536        0.00237704664464
C           -1.91340021208982        1.15183052514710        0.00184523913041
C           -2.45046275407019        2.43620393993609        0.00286142306765
N           -2.90979781124920        3.49128319281430        0.00399545863543
C           -0.49950114159457        0.82717987141904        0.00004365101928
C           -0.39487210864833       -0.63763066266394       -0.00056419471505
N            0.76953462744005       -1.32929773812282       -0.00217280353472
C            1.83920999781949       -0.60768410451211       -0.00331778049271
N            3.11588594520548       -1.08949068692269       -0.00506549415402
C            3.89876899658037       -0.04297237900509       -0.00576844577387
C            3.15894213694366        1.23965025770731       -0.00446402151431
C            1.85317520619924        0.89294836516986       -0.00290859657258
C            0.61410264487577        1.59869343610706       -0.00112812986875
H            0.58371717760748        2.67918819230225       -0.00079126290727
H            3.61284233525002        2.21226424791795       -0.00475426002809
N            5.22995137614650       -0.12550557912659       -0.00746939983906
H            5.80474142156413        0.69780853104788       -0.00796372294312
H            5.65298876797617       -1.03796573728482       -0.00823011857200
N           -3.95602271395556       -0.20762391720441        0.00394121840351
H           -4.56878831792791        0.58890639174124        0.00502843651001
H           -4.34292749394758       -1.13518704957582        0.00422722347163
