21
 energy: -33.419768068180 gnorm: 0.000216714551 xtb: 6.6.1 (8d0f1dd)
N            3.05710602275259        1.71522901804479        0.00035794361357
C            2.41234351933506        0.53730388643100        0.00056256580690
C            1.00017423164091        0.34825586369087        0.00062648823587
C            0.77123693796638       -1.07636346816998        0.00113794050163
C            2.05251019061790       -1.70580961234891        0.00139090818223
C            3.02830487932507       -0.74111497438155        0.00105318651167
H            4.09075257956731       -0.90420061043499        0.00112987109545
H            2.21425556835413       -2.76852610709031        0.00177286676968
C           -0.50252310325609       -1.60098201399523        0.00130014010898
C           -1.56594037287211       -0.69638383356161        0.00095442149923
C           -2.96267458598392       -0.82850233493146        0.00098058967975
N           -3.57789945608085        0.36682766938182        0.00053742046706
C           -2.63000678318752        1.29909985725526        0.00022347232332
C           -1.33393622448095        0.72948719896809        0.00044502079017
C           -0.05067950094165        1.25199763302008        0.00027664332146
H            0.11316932437826        2.32232922736756       -0.00010064378494
H           -2.88792176506066        2.34331565437835       -0.00015180025937
H           -3.54103486871855       -1.73501084093691        0.00129039960104
H           -0.67558200326763       -2.66806091582559        0.00168007615992
H            2.54253169565447        2.57750613169184       -0.00078247554547
H            4.06093296745786        1.74707926704687       -0.00046432067814
