22
 energy: -41.940764259390 gnorm: 0.000606701703 xtb: 6.6.1 (8d0f1dd)
N            0.03339999082404       -3.66490206703727        0.00023352382919
C           -0.04197981611096       -2.51866533903932       -0.00515195323679
C           -0.07026955969221       -1.11486197494042       -0.00594582997941
C           -1.21663363360597       -0.37209779776094       -0.00338993503837
N           -2.52456574222095       -0.74082332785067        0.00140706354302
C           -3.17882382369640        0.39822959325947        0.00154142513167
N           -2.39701471028451        1.56498877654592       -0.00304375082974
C           -1.17533932812495        1.11731047064924       -0.00622688271710
C            0.04995211723786        1.83976298095756       -0.01155423502970
C            1.18681219798017        1.10332671134220       -0.01385904620174
N            2.48797137645652        1.55775842658822       -0.01887055209429
C            3.24176544892738        0.49420926016474       -0.01930588184887
C            2.46383634431798       -0.76537789735448       -0.01456943082761
C            1.16891397135384       -0.37786110500962       -0.01108667897020
H            2.87761639811927       -1.75530641837419       -0.01412706955254
N            4.57847064895814        0.53004247679392       -0.02415400072536
H            5.03890847074557        1.42337885348763       -0.02593810927229
H            5.11963910703526       -0.31520572284050       -0.02189950322715
H            0.05156919432178        2.91678519006372       -0.01361590423531
N           -4.50462554125777        0.51017573999866        0.00568590813744
H           -5.07019148900585       -0.31963781458038        0.00903402663074
H           -4.91692853157825        1.42567167363651        0.00537440151443
