23
 energy: -47.232689711964 gnorm: 0.000241154685 xtb: 6.6.1 (8d0f1dd)
N           -2.98894504194049       -3.39247620184446       -0.00263104253967
C           -2.59345000612532       -2.31348267773957       -0.00211069296444
C           -2.19057582069579       -0.97817554220347       -0.00166383998826
C           -3.03598273371182        0.11738055717923       -0.00170303235144
C           -2.23482712609177        1.33596022607194       -0.00110795502441
C           -0.91809525406993        0.99119660999495       -0.00072243316477
C           -0.82721711972015       -0.48343105129946       -0.00105182272683
N            0.26920302440312       -1.16086332251997       -0.00083295482316
C            1.40814667801806       -0.42133187758415       -0.00026463996964
C            2.72976388496682       -0.82098745695945        0.00022500179682
C            3.27667538523745       -2.10175844721584        0.00039308023886
N            3.76696727426263       -3.14079707527797       -0.00005007462758
C            3.50302845736459        0.42992044656560        0.00075288778562
N            2.76286989948009        1.48184576254055        0.00068957639834
C            1.44730545864083        1.03888352751240        0.00006138226358
C            0.28845473980664        1.76612524027326       -0.00009454358421
C            0.23155197702670        3.17687459185171        0.00055361326727
N            0.13103849890183        4.31821631218294        0.00027062257945
H            4.57617926598819        0.48886036576999        0.00117430856512
H           -2.64557033314085        2.33053944372624       -0.00103272895857
N           -4.37881833226219        0.11636498476305       -0.00217872048283
H           -4.87642116536363       -0.75755604629053       -0.00258525802190
H           -4.89538185687511        0.97743106330346       -0.00218385276720
