20
 energy: -39.272735858489 gnorm: 0.000595020216 xtb: 6.6.1 (8d0f1dd)
N           -3.90909447553577       -1.30824188465479        0.00197723903447
C           -3.06025186422877       -0.53430538210950       -0.00250243088089
C           -2.07377077293939        0.45097914984604       -0.00028796333934
C           -0.69587888532724        0.33211090974400        0.00027626368325
C           -0.18743095483906        1.69108642595485        0.00066641995255
N           -1.24735624026033        2.58976225331105        0.00083820834905
C           -2.32917371288264        1.89421000217660        0.00030740255343
H           -3.30368440685904        2.34684788907516        0.00001961731700
C            1.14284013458674        1.97298781522588        0.00084651486973
C            2.03262193684032        0.86388492229196        0.00070814511723
C            3.40102579510501        0.74746633080323        0.00081254088297
C            3.67050375692833       -0.67823831255403        0.00058620761842
N            2.59615650178101       -1.39739845039773        0.00030627581238
C            1.53283496994794       -0.50626400391976        0.00037743936116
C            0.19477568075707       -0.79261937056968        0.00008380265497
C           -0.31107044601353       -2.11062861760027       -0.00066772732518
N           -0.74279432293927       -3.17180660847889        0.00046163762155
H            4.64423661052952       -1.13332214426599        0.00059293244085
H            4.13784706147839        1.52745261485105        0.00102543712281
H            1.51084668217075        2.98701417707085        0.00105471015364
