28
 energy: -43.471099853640 gnorm: 0.000607995149 xtb: 6.6.1 (8d0f1dd)
N           -2.57905900256358       -2.43516178542958        0.16068442421416
C           -2.13300329762881       -1.13294229380687        0.07720972023601
C           -2.94586743443098       -0.00091956886044        0.00179661594333
C           -2.13378910222975        1.13164517990538       -0.07394232459174
N           -2.58074805665339        2.43356662744787       -0.15723895016111
H           -3.56148425899988        2.51702859539058       -0.38440990194855
H           -1.99629125969505        3.04880123107048       -0.70424441165648
C           -0.77501784683953        0.71944664564831       -0.01657427068634
C           -0.77453058806486       -0.71983695047276        0.01929902134196
C            0.41466720561012       -1.44991125248315       -0.03548386083819
N            0.42253162481732       -2.82312632474000       -0.08079884279185
H            1.31569745863833       -3.23205253576354       -0.30781753484812
H           -0.36417236145299       -3.25700940227047       -0.53721532957293
C            1.61470096067191       -0.71779635198779       -0.02049588248695
C            2.95826793786379       -1.13173308765686       -0.03372363445911
C            3.76367377716938        0.00131772545885        0.00046672294521
C            2.95752612864980        1.13383143338280        0.03497299103122
C            1.61423035008672        0.71899919898938        0.02227473634506
C            0.41371449985418        1.45031395464126        0.03773517668576
N            0.42068239569083        2.82353352424427        0.08304206576508
H            1.31366523098169        3.23305655308478        0.30970378166859
H           -0.36613169170694        3.25689671202816        0.53976189744457
H            3.31539861012673        2.14952942886419        0.04908663379175
H            4.83983795252342        0.00167656770603        0.00025564124061
H            3.31681165775101       -2.14719232851471       -0.04797739014981
H           -4.02145390483566       -0.00127845391936        0.00201200649725
H           -1.99396936458360       -3.05000718453088        0.70745065230781
H           -3.55964718345017       -2.51927995012589        0.38825131053281
