22
 energy: -37.148197915472 gnorm: 0.000740385079 xtb: 6.6.1 (8d0f1dd)
N           -3.25199038011380       -1.71965370839923       -0.02910057252827
C           -2.49068421128659       -0.61600216269604       -0.00850630554049
N           -3.04094657183433        0.61120676882148       -0.00448536646153
C           -2.02961383730419        1.48532039147034       -0.00179679213204
C           -0.77333068350671        0.86274736138541       -0.00355093351388
C           -1.05920008491440       -0.55132799264448       -0.00801644548328
C           -0.06530951818433       -1.50704317737995       -0.00818226310155
C            1.24649896951737       -1.04442094384431       -0.00433274044191
C            2.50328580002624       -1.68405191417268       -0.00153379869672
N            3.50454264696024       -0.80639544364609        0.00380522262513
C            2.95803612289213        0.41887684173809        0.00445737984207
C            1.55780083985939        0.36548444250090       -0.00044293686059
C            0.54809750744233        1.34678526127296       -0.00112550261791
N            0.83186613010886        2.66170146412418       -0.00032397827584
H            1.78703699221548        2.96905670370932        0.00585319337229
H            0.09498462181385        3.34259337230730        0.00366777531176
H            3.59551653182835        1.28618918167363        0.00910082530030
H            2.70104017277715       -2.74087394790170       -0.00333020351864
H           -0.28236987636110       -2.56657597708659       -0.01110738544356
H           -2.24997061736640        2.53893190508145        0.00344441635243
H           -2.83713947169919       -2.63035235114920        0.04005505645883
H           -4.24967710077034       -1.61506528046487        0.02153974265343
