21
 energy: -42.993100646767 gnorm: 0.000944894778 xtb: 6.6.1 (8d0f1dd)
N           -2.48539145188135       -3.44703320154600       -0.17851848279393
C           -1.99909589277102       -2.40900961952558       -0.09066604344228
C           -1.46209998130747       -1.13087111027512        0.05479083437915
C           -2.27802992692994        0.09063767642023        0.04634405501326
C           -1.43164035222895        1.18998722960133       -0.00052308292424
C           -1.84533651730955        2.52500150729252       -0.02123787863987
N           -2.24104716876606        3.60260148076730       -0.04658561541715
C           -0.08398996921257        0.70793116742803        0.03654266107463
C           -0.13149051114561       -0.77202702319141        0.11498422204643
C            1.07620850289613       -1.49517469834786        0.05535130156622
C            2.22349597237698       -0.81687961641603       -0.23284197953043
N            3.52944009764958       -1.16274194635855       -0.21588625751792
C            4.17287603418071       -0.05126370152621        0.00170159874303
N            3.39764438659265        1.06469573511832        0.16817063156771
C            2.17833468301671        0.68004362770478       -0.08669663852763
N            1.03569560654324        1.33320948383223       -0.07852068475256
H            5.24215127705699        0.00830599456360        0.07018693649732
H            1.10757590862816       -2.54376622446939        0.31513088088760
N           -3.61522949787774        0.07852810541845        0.03619937890953
H           -4.12032228360310       -0.79149335045313        0.05141418463193
H           -4.12407344350763        0.94577229076232       -0.00812466467087
