21
 energy: -42.211067055807 gnorm: 0.000355158266 xtb: 6.6.1 (8d0f1dd)
N           -0.00748526723822        3.73826680543082        0.00060139129715
C            0.05578273805475        2.59197352268457       -0.00029907160678
C            0.06945491118141        1.18542048728664       -0.00070193688677
C            1.19958276026712        0.41501761771026       -0.00097263186303
N            2.51646933976174        0.73065336722565       -0.00079954212893
C            3.12539089703851       -0.43723488101230       -0.00123527103946
N            2.30301230709375       -1.57430459218424       -0.00170943924799
C            1.10302511667882       -1.08326547865309       -0.00157610972137
N           -0.05540099650807       -1.78519991232592       -0.00190746323327
C           -1.12366225173558       -1.06449020679781       -0.00163851593879
N           -2.39255835915414       -1.55576841084232       -0.00190406184034
C           -3.18887863226506       -0.51566723317762       -0.00151630268293
C           -2.46452904749014        0.77773690943583       -0.00096447826697
C           -1.15850955883609        0.44590580434753       -0.00101752094222
H           -2.92542107774654        1.74654449007690       -0.00061235555404
N           -4.51333406220400       -0.61535604974693       -0.00162188736628
H           -4.92667746242913       -1.53329556331715       -0.00201172674559
H           -5.09834787308206        0.20188509768075       -0.00131971504801
N            4.44250945466540       -0.59911391192367       -0.00123743220308
H            5.04030723918146        0.20865465587705       -0.00088418024121
H            4.81653527786609       -1.53174047747497       -0.00159632304011
