20
 energy: -38.479427982732 gnorm: 0.000932428061 xtb: 6.6.1 (8d0f1dd)
N            4.03195272373700        2.17537225613824        0.00492708661791
C            3.37352465484720        1.23310745353433        0.00403067857345
C            2.57949908363461        0.08652046330615       -0.03737724939504
C            1.14895245766252        0.08821371777394        0.04623844447603
N            0.24254430182144        0.97250871198066       -0.19989933481668
C           -1.02804818704036        0.71484825518874       -0.13411877823011
C           -2.20184815205459        1.41008253279593        0.01773796421093
C           -3.24811620083418        0.43894581329751       -0.02422504023017
N           -2.78611567784278       -0.81309345103140       -0.07860700217195
C           -1.46643065319683       -0.75939263002067       -0.07342113531841
N           -0.55350926357072       -1.62386108544391        0.15099405163301
C            0.73166429031942       -1.33126858430370        0.18925868641911
C            1.88083840737256       -2.09145991610506        0.06252092301066
C            2.99762231533436       -1.23616399009913       -0.00238416653255
H            4.02168314396034       -1.55803852198849       -0.03984467597245
H            1.89517672109923       -3.15779377908788       -0.05840027662426
N           -4.56339518430355        0.69620985728743        0.02734384488965
H           -5.20906554307644       -0.06826059551080       -0.05781554093455
H           -4.89906820676647        1.64119013101546        0.03932698857945
H           -2.30386727290275        2.46289747127264        0.19080762521598
