26
 energy: -40.027749191006 gnorm: 0.000568086055 xtb: 6.6.1 (8d0f1dd)
N           -2.33213089843132       -2.68736043352331        0.07061498308414
C           -2.13126410010326       -1.33865656481497        0.00412813671578
C           -3.12318875418459       -0.35990421417075        0.00156822829382
C           -2.51656731109524        0.90170062536136       -0.01028033292500
C           -1.10234099992096        0.72692473983006       -0.01820720449418
C           -0.85461391552257       -0.69323216577282        0.00137853557979
C            0.43231175968470       -1.19385824625902        0.01358221822897
C            1.48317938381756       -0.28751113709258        0.00172308779916
C            2.88986195479255       -0.45907505452932        0.01565778796735
C            3.48512433870226        0.81362739989718       -0.01745260099523
C            2.49477156592776        1.77981761125651       -0.04392435655440
C            1.23602605651976        1.13936455018136       -0.03000815351439
C           -0.05692770066273        1.63504285512736       -0.03680500680800
H           -0.23496883802281        2.70315509986771       -0.05916818413795
H            2.65364654801052        2.84332597951323       -0.06883614175775
H            4.54612090312929        0.99376844826376       -0.01843695244100
N            3.56078745207865       -1.65928237168407       -0.00512040427166
H            4.52654708691357       -1.62938500617419        0.28093204122814
H            3.04930401408021       -2.46024977865687        0.32876131981643
H            0.61780230416816       -2.26209213406479        0.03215933980001
N           -3.16471038815446        2.09859736055062       -0.07382879613737
H           -2.63258091025190        2.92279101629971        0.14814613911793
H           -4.13936149380943        2.11768000477199        0.17512102391989
H           -4.18287018892059       -0.54243033661164        0.00597899444402
H           -1.56077757492425       -3.27713189986026       -0.19325766983129
H           -3.24672240662085       -3.02903923670635       -0.17451506312718
