23
 energy: -36.872245441169 gnorm: 0.000762465756 xtb: 6.6.1 (8d0f1dd)
N           -3.24153582391152       -1.71351414093531       -0.05891598713017
C           -2.47410184781441       -0.61043213681693       -0.01665166726024
N           -3.02341289450549        0.61971929743456       -0.01329340162791
C           -2.00828688018956        1.48913895459401       -0.00229586273365
C           -0.75539773141987        0.85940088439547        0.00262557500163
C           -1.04715492498112       -0.54914104910903       -0.00754181928722
C           -0.04804128223628       -1.50561090606537       -0.00720975215221
C            1.26410263062391       -1.05528528058188       -0.00069961059003
C            2.49193881473345       -1.75607767814972       -0.00379620834504
C            3.52119869379607       -0.83011808996065        0.00031619744335
C            2.98116471233582        0.45883523229382        0.00681727726583
C            1.58152148851452        0.35384793450598        0.00718639248451
C            0.57132351314475        1.33197348134723        0.01060144290644
N            0.85409004394317        2.65094204861436        0.03765610482862
H            1.80694765269683        2.95987571026783       -0.01981557699284
H            0.11675382725311        3.32814730734989       -0.02554775441749
H            3.55659360351535        1.36867905650290        0.01137532481610
H            4.57193461419636       -1.06008188521842       -0.00193878118873
H            2.59817563385842       -2.82588647154763       -0.00976257826916
H           -0.27065974030592       -2.56455852244567       -0.01366453494329
H           -2.22421574401080        2.54387236869041        0.00505547791240
H           -4.23612959274684       -1.60359020503577        0.02912896797555
H           -2.82908702138998       -2.61925874443012        0.06967963550353
