24
 energy: -41.375599317532 gnorm: 0.000754314328 xtb: 6.6.1 (8d0f1dd)
N           -0.01914598833820       -3.63501956093006        0.00196646880711
C           -0.04665858892094       -2.48618066968998        0.00973604355666
C           -0.05484447762190       -1.08114067832246        0.01457730768112
C           -1.20634118943757       -0.34413612808601        0.01217629946432
C           -2.58465414288486       -0.73373345772170        0.00021460937968
C           -3.33780031102106        0.40454817782850       -0.00980402822887
C           -2.44864459247829        1.56631288638693       -0.00038494040232
C           -1.16124896783079        1.12692168152537        0.01026246055972
C            0.07754795603941        1.83282342271006        0.01651278450311
C            1.21866735805820        1.10221591228600        0.02018078943482
N            2.52678097387415        1.55208303546603        0.01846118455091
C            3.27350486673907        0.48343654451161        0.01829108724010
C            2.49467622228745       -0.76153106580252        0.01796041130036
C            1.19700433260565       -0.36406040670883        0.01788677538369
H            2.90099805035591       -1.75527497859068        0.01935233063231
N            4.62284592735357        0.51649982737325        0.06780456014899
H            5.06393293711106        1.41089177628568       -0.06086397453354
H            5.14356254393632       -0.31021123401571       -0.16589152550274
H            0.09272254502144        2.91118773594709        0.01857874295649
H           -2.78910800144970        2.58607134681160       -0.00134450035846
N           -4.69395643266737        0.52304863571736        0.03321950957046
H           -5.10125562441796        1.40437366861465       -0.22843572778457
H           -5.24062835263933       -0.29999759458851       -0.15484016903280
H           -2.93511996657429       -1.74764381880758       -0.00078369322655
