22
 energy: -42.727937371097 gnorm: 0.000666609720 xtb: 6.6.1 (8d0f1dd)
N           -4.39731548465270       -2.18882249785869       -0.00585420783587
C           -3.61724251212849       -1.34458354857156       -0.00615383203150
C           -2.68420703661162       -0.31088018730605       -0.00266697285389
C           -1.30579059028069       -0.38215550519607        0.00163460661474
C           -0.86025523622400        1.01195239556860        0.00143418330850
N           -1.95385466141330        1.86843393311688       -0.00245241607741
C           -3.00149188876751        1.12217794303160       -0.00493690940064
H           -3.99426054920455        1.53457522022026       -0.00873270562360
C            0.46251492570616        1.34034950760203        0.00409202898951
C            0.94645349032860        2.66410887813659        0.00352684909881
N            1.39375765382861        3.71985347697494        0.00130906912496
C            1.39910853923976        0.24380319752234        0.00651862619325
C            2.75646517241153        0.19206486891978        0.00552254654475
C            3.07927990356210       -1.24797268330694        0.00651886371576
N            2.01642856268552       -2.00263755439027        0.00840977996423
C            0.93478099997456       -1.14959066918075        0.00833989426551
C           -0.38683708875493       -1.46428688680286        0.00556535498391
H           -0.73428243371962       -2.48484319385938        0.00638710033957
N            4.33311745961561       -1.72371350121925        0.03006690956741
H            5.11960647196484       -1.10859322389188       -0.07350798710519
H            4.46598530078460       -2.71855568999179       -0.02188145590970
H            3.46703789325552        0.99652190258245        0.00541001172692
