24
 energy: -46.174646281146 gnorm: 0.000738914800 xtb: 6.6.1 (8d0f1dd)
N           -0.02870567718209        4.01775064274011       -0.00973649503545
C           -0.02759862468284        2.87001628361500       -0.01413658475526
C            0.00206283684303        1.46360187833935       -0.01236943191853
C           -1.21916159845311        0.70926501911753       -0.00470369536482
N           -2.44723687328183        1.12740725800428        0.00252413560579
C           -3.19984995786651       -0.06166756815001        0.00726059543519
N           -2.51313765799169       -1.17967087461789        0.00323758941142
C           -1.21463623585371       -0.77569626250331       -0.00460907912117
C           -0.04716488866524       -1.48583539875829       -0.01169825613751
C            0.00715273838770       -2.89008271002525       -0.01215757065775
N            0.09954333341757       -4.03453176547960       -0.01266046150897
C            1.17792654159343       -0.72575343532527       -0.01917566556281
C            2.46767358624175       -1.13146882740376       -0.02701064257764
C            3.32571165257225        0.07077239545337       -0.03230663744613
C            2.53347384470502        1.18346989290552       -0.02759584359499
C            1.17373598568178        0.75151850324356       -0.01923451540530
H            2.84835333613351        2.20809100599940       -0.02959620834645
N            4.66933072194782       -0.01458620063666       -0.04044957350041
H            5.12379232065026       -0.90951481470834       -0.04318218939475
H            5.22879722880891        0.81918939085667       -0.04389306059308
H            2.83573885238007       -2.14104058102263       -0.02919639535182
N           -4.52704082530996        0.02053251608462        0.01525519648011
H           -5.07482701715338       -0.82115634246622        0.01869551126291
H           -4.95786016702274        0.92771310613760        0.01785316127745
