23
 energy: -46.454792105560 gnorm: 0.000918577816 xtb: 6.6.1 (8d0f1dd)
N            3.86707216167672        2.65562164437394        0.00251767502069
C            3.10526180025141        1.79344623688810       -0.00025189481768
C            2.27608505446463        0.67906211549194        0.00038037761569
C            0.90960186881333        0.55335850648373        0.00188012273192
C            0.65293884281412       -0.90575023655607        0.00074177611378
N            1.82754575459767       -1.60556861649165       -0.00104258095836
C            2.78590970267514       -0.71860007300658       -0.00112526000131
N            4.08426867211017       -1.01641145134979       -0.00267187112184
H            4.36152602109151       -1.98311744671964       -0.00385808670448
H            4.77704059091317       -0.28754323093573       -0.00265995950374
C           -0.63199710201684       -1.37500640592377        0.00150025625721
C           -0.98366641615960       -2.73834701225188       -0.00016188006574
N           -1.32623066414619       -3.83365817653944       -0.00025862658797
C           -1.65308699261666       -0.36642026032567        0.00325135493587
C           -3.00208553229400       -0.37781251145106        0.00431263995462
C           -3.39471527083796        1.04937383420324        0.00631933457518
N           -2.37161451091257        1.86685598184047        0.00640990286663
C           -1.25927976093596        1.08323651269630        0.00457985256982
N           -0.04286250712868        1.51489653708649        0.00395844346035
N           -4.65897760622096        1.46523783148083        0.00796139887239
H           -4.83922776778971        2.45520265827744        0.00930573977139
H           -5.42282910693933        0.81271902482449        0.00796964089759
H           -3.68024497570947       -1.20923332739567        0.00413911591798
