17
 energy: -35.297613935073 gnorm: 0.000672890493 xtb: 6.6.1 (8d0f1dd)
N            3.89634755202501        1.86165471075105        0.26557479995348
C            3.11778509507758        1.02494849517377        0.14716103159911
C            2.18435723459359        0.00253973946780       -0.01873203808880
C            0.80275439048033        0.13570301405543       -0.15674901775680
C            0.30574362697942       -1.25728873398586       -0.06855565926195
N            1.34651376287309       -2.11893426288076       -0.04058150916596
C            2.44301041888860       -1.41564798124444       -0.01666148212432
H            3.41081793796801       -1.88165684315648       -0.01423232932179
N           -0.95295470619763       -1.47234712638994        0.09193877981532
C           -1.85551026979074       -0.54332899279596        0.07114465965961
N           -3.15847381546042       -0.54487607163404       -0.06535440079099
C           -3.54484591288724        0.74260543326199        0.05385435359092
N           -2.56924367466545        1.61674930808500        0.17839237147251
C           -1.43879339525546        0.91602344852974        0.13918994219768
C           -0.12626576361296        1.17810313717063       -0.13666284953508
H            0.15653819459875        2.16630023008093       -0.47490331635411
H           -4.58076772321723        1.02059159861062        0.03880399861085
