19
 energy: -39.537573103054 gnorm: 0.000960912898 xtb: 6.6.1 (8d0f1dd)
N            3.91787309450755        1.20636431951751       -0.43865950182249
C            3.10389778902325        0.40902870631506       -0.29234903531872
C            2.13015362564988       -0.56717452786480       -0.07742045556064
C            0.70326367800497       -0.33191905070462       -0.07260449566179
C            0.07657690626996       -1.63579859481803       -0.04225937486330
C            1.10089579195770       -2.59366507846740        0.07928812984611
C            2.33684804304220       -1.93963440102826        0.03639091763466
H            3.29869109004982       -2.41638714911976        0.06547919741493
H            0.94041837746544       -3.63906081670728        0.26433774052953
N           -1.23451171916016       -1.79199187759079       -0.02276431963340
C           -2.01918008868219       -0.77796142369406        0.07380278694326
N           -3.36148513010815       -0.67751384816655        0.05006432029766
C           -3.60506930540473        0.59616277075268       -0.11673998653466
N           -2.50670001810241        1.39659975668509       -0.24957290510798
C           -1.48085701160585        0.62249765607204       -0.03387616860976
C           -0.08102934320473        0.80073864937030        0.01832401692847
C            0.45191727522151        2.07113277604543        0.34044287938877
N            0.88326392566485        3.10447889028894        0.57708192621276
H           -4.59642925139098        1.00196393121531       -0.17290594038448
