24
 energy: -46.172160442019 gnorm: 0.000728886736 xtb: 6.6.1 (8d0f1dd)
N           -3.75794203233149       -2.11080290643974       -0.00617422044844
C           -3.05762137946316       -1.19804357506617       -0.00572229201602
C           -2.27288491525501       -0.04672263274718       -0.00744212438569
C           -0.83432624237462        0.02549869392359       -0.00566968315060
C           -0.47767861108931        1.45878644301162       -0.00794050960543
C           -1.63363191883334        2.17955522440916       -0.01098506191595
C           -2.75515245531010        1.25443114385321       -0.01076406904537
N           -4.04131903736198        1.64095155040328       -0.01335039138633
H           -4.77103589270964        0.94905118305998       -0.01291122955287
H           -4.28321755664577        2.61526531212470       -0.01543082969622
H           -1.72347250321497        3.24891776835482       -0.01313862602034
N            0.79464907477782        1.93861953843289       -0.00700664441798
C            1.72608985565513        1.04981553530437       -0.00390021576092
N            3.06905006567008        1.30712486727671       -0.00239223146024
C            3.66351386710937        0.14438330327454        0.00070359047085
C            2.71841082056813       -0.99489349775889        0.00146672448236
C            1.49452337592801       -0.42926723765443       -0.00139314417822
C            0.14425321609646       -0.92700035375024       -0.00234190162797
C           -0.08137069697207       -2.31795736496016        0.00053642504515
N           -0.20039886788264       -3.45938466965938        0.00151265899170
H            2.99419663666097       -2.03220844845520        0.00382121893500
N            4.99006392832092       -0.00311065870189        0.00296438329777
H            5.56541206046256        0.82138475459412        0.00231911487425
H            5.41215610529467       -0.91404831062985        0.00533039267158
