21
 energy: -42.216406874604 gnorm: 0.000997431275 xtb: 6.6.1 (8d0f1dd)
N           -3.54330352359567       -2.54708988925029       -0.11403274450188
C           -2.89114374631681       -1.60264951992500       -0.03023166002160
C           -2.17646118237727       -0.41330283152867        0.07292712313610
C           -0.79590902254291       -0.25193880285274        0.15812565375114
C           -0.53464570718676        1.23027007044350        0.13123765891291
C           -1.75795536542617        1.86702037134106        0.03304557111964
C           -2.76827925600865        0.89150640569372        0.06263790344568
N           -4.09500322153133        1.11164827736644        0.02580507984384
H           -4.45266863482660        2.04314524260877       -0.08523140521692
H           -4.72493693974305        0.33109713698405       -0.04379102702950
H           -1.90232186224549        2.92410137073456       -0.07004412024212
N            0.70675403986838        1.62066152008638        0.01184801885611
C            1.71044183074644        0.85247189391115       -0.15707663735691
N            3.00980485208765        0.98338450601312       -0.06168554093441
C            3.51383360271639       -0.26754651980438       -0.06721188549363
N            2.60528731962940       -1.26329711856345       -0.00911946426559
C            1.43284706956453       -0.69409490573508       -0.12626628857950
N            0.22278903821629       -1.05599405647681        0.05256401731558
N            4.82995171583211       -0.50625517868113       -0.05792550788023
H            5.14713418070140       -1.44567482839427        0.09970881955423
H            5.45835767133831        0.26755222052897        0.06105191228691
