24
 energy: -46.966603689794 gnorm: 0.000654291612 xtb: 6.6.1 (8d0f1dd)
N           -4.13293653718320       -1.31265869846826       -0.00539224737307
C           -3.20291300810554       -0.63642075068805        0.00297827181380
C           -2.12263176906008        0.24365586524598        0.00897548453886
C           -2.21636283483672        1.62986202635082        0.00929165503928
C           -0.88182934870950        2.18070822747153        0.00913840837357
C            0.02228579858209        1.14893880680948        0.00735765341905
C           -0.71610359168956       -0.10442920293546        0.00769773696453
C           -0.07593347467972       -1.31287568846694        0.00470153921604
C           -0.74559769206247       -2.55367347303367        0.00497179140271
N           -1.24288848981621       -3.58690494542896        0.00452575521289
C            1.36320122860870       -1.29823371980020        0.00094738412929
C            2.31496157643468       -2.28036739120804       -0.00359665094344
C            3.58760081975790       -1.57935158720128       -0.00593649673897
N            3.45989457371860       -0.29244834401569       -0.00316387707838
C            2.09654075992795       -0.04092517552507        0.00116005150159
C            1.45542235244351        1.16827799972896        0.00421653998692
C            2.13279331007347        2.40620669058436        0.00353622233151
N            2.63513444307457        3.43625553254828        0.00275578335240
H            4.55755023706810       -2.04230107992743       -0.00964806852084
H            2.17623778480814       -3.34422012426513       -0.00528095621101
H           -0.65432482606266        3.23159835109474        0.01037108609098
N           -3.34094259643111        2.37065831751484        0.03359129466997
H           -3.29493378284404        3.36985484348145       -0.05045929589076
H           -4.23613474371698        1.91678991173375       -0.02293320548696
