20
 energy: -37.688904647400 gnorm: 0.000644551360 xtb: 6.6.1 (8d0f1dd)
N            4.52320160030867        0.03851352228150        0.00093801828711
C            3.18093425066003       -0.01691183971271       -0.05369683128927
N            2.44465713158883        1.10079912871502       -0.06140597311829
C            1.17433364232855        0.72535582109809       -0.11365184665461
C            1.08861016193826       -0.78777409389093       -0.19868655248723
C            2.39035982395599       -1.20280403308854       -0.04416538873215
H            2.73873075535815       -2.20937575083915        0.07257428817213
N           -0.08458684144319       -1.37121147871014       -0.17461165289423
C           -1.17360831861530       -0.72533198472553        0.06416172333699
N           -2.44393179545438       -1.10077665836732        0.01194825841068
C           -3.18021085687099        0.01693299605570        0.00421504693850
C           -2.38964094709189        1.20282433220273       -0.00531048824863
C           -1.08789021977390        0.78779382344491        0.14921515776103
N            0.08530461748529        1.37123681907327        0.12515485054805
H           -2.73801299472554        2.20939554840764       -0.12204545406219
N           -4.52248028433719       -0.03849520898130       -0.05044283746142
H           -4.96903263948904       -0.93645100002008       -0.01472303837852
H           -5.07018065582723        0.80060411508394       -0.07485707662808
H            4.96975624268759        0.93647012874708       -0.03471259237598
H            5.07090007901729       -0.80058466577418        0.02543187267609
