24
 energy: -46.963109650426 gnorm: 0.000534967005 xtb: 6.6.1 (8d0f1dd)
N           -4.96978805393393       -1.81195734949933       -0.00233307141284
C           -4.16815581050529       -0.98961250633171       -0.00255449318264
C           -3.19776107460746        0.01429778758069       -0.00147237544103
C           -1.74612987884208       -0.22179163595536        0.00391879281974
N           -1.12341972590930       -1.35704883143497        0.00738692565259
C            0.22240656366732       -1.27791241595418        0.01112474811866
C            1.12760316017396       -2.32425062287049        0.01514697270862
C            2.45402617425938       -1.78287379263416        0.01459434206246
C            2.37165017053303       -0.38893596985606        0.01208054958944
C            3.45622912292842        0.48305575097136        0.00264868614290
N            4.38601579115600        1.16084207163487       -0.01089817416865
C            0.97038141808596       -0.02990327205583        0.01030008349123
C            0.30861682293691        1.17165010178539        0.00640240005543
C            0.94784361147389        2.42926444421664        0.00567901541576
N            1.42632863846876        3.47109366055379        0.00428191609864
C           -1.12338743977280        1.08932348055354        0.00273045225629
C           -2.12116419452623        2.03474336677251       -0.00335480949013
C           -3.39164424765998        1.36908418638000       -0.00550972753581
H           -4.34215429848996        1.86977486611659       -0.01003003830093
H           -1.98894161930516        3.10216466379624       -0.00650103086442
N            3.58294156309168       -2.52046052194807        0.04904699684658
H            3.53751386786906       -3.51693139945946       -0.06377942904173
H            4.47441610297251       -2.06343612109094       -0.03466329443540
H            0.88363679353536       -3.37001236657099        0.01857715441525
