21
 energy: -38.206295827011 gnorm: 0.000340846664 xtb: 6.6.1 (8d0f1dd)
N           -0.61709736768772       -3.53681322173409       -0.00502956507449
C           -0.59850200501339       -2.39014428216252       -0.00654369017498
C           -0.50558944518375       -0.98386212453536       -0.00718537588487
C           -1.58101903726149       -0.14862206630256       -0.00170456648054
N           -2.92933404129322       -0.48700708388957        0.00578841209607
C           -3.57268466604634        0.63356422415323        0.00934580390349
C           -2.70490423393299        1.79895679521682        0.00498741283771
C           -1.42927083846047        1.31095525297633       -0.00187818182524
C           -0.14040848187893        1.92060869412933       -0.00910708323734
C            0.93667773748045        1.09753130559624       -0.01455988652655
N            2.27608845573311        1.43692273450025       -0.01663692423118
C            2.93697662173966        0.31370185203721       -0.01729699335405
C            2.05823582330370       -0.86605936507286       -0.01478506334816
C            0.79616530775256       -0.36213707216211       -0.01256601001367
H            2.37883427969611       -1.89050602047104       -0.01590566378717
N            4.28006467506374        0.23702872585130       -0.05845720934150
H            4.80217311189253        1.09103236498185        0.03091821433359
H            4.74205241084768       -0.63844284033856        0.10813174542111
H           -0.03892266855559        2.99394888723713       -0.01052292861308
H           -3.03123042011537        2.82084317207211        0.00701264883294
H           -4.64820213288027        0.65497024171683        0.01533317456788
