20
 energy: -38.475527124239 gnorm: 0.000395222786 xtb: 6.6.1 (8d0f1dd)
N           -3.26981615178801       -2.45002265105361        0.00092193192777
C           -2.54189255191076       -1.55924831872941       -0.00053096419744
C           -1.75441290432728       -0.41501726666660       -0.00144841184565
C           -0.39224658283692       -0.24041943412560       -0.00153304019328
C           -0.17119214620953        1.21111669861467       -0.00218826488287
N           -1.37995442346099        1.87845023043328       -0.00228503032792
C           -2.30760798380873        0.97060729762927       -0.00191393399522
N           -3.62255994123350        1.21848471365785       -0.00396629379106
H           -4.28654353094011        0.46462255301491        0.00401048284230
H           -3.93812415021047        2.17221474209337        0.00070290572203
C            1.08918832510129        1.71676130752119       -0.00233064098534
C            2.13380513310982        0.75120566396826       -0.00175651534062
C            3.49234332994955        0.78740307131777       -0.00154079009660
C            3.92386388298797       -0.61320282643531       -0.00077758800859
N            2.95499598590920       -1.45766508363161       -0.00051476534053
C            1.78558372333065       -0.69546637799434       -0.00109588380947
N            0.59793089015649       -1.17759351231202       -0.00100314370319
H            4.94844409265618       -0.94264534796908       -0.00042936121961
H            4.14720960218844        1.63753316946184       -0.00183819998724
H            1.29462199333671        2.77577632600513       -0.00279782536748
