25
 energy: -51.492415948621 gnorm: 0.000534887034 xtb: 6.6.1 (8d0f1dd)
N           -5.04301953249740       -0.66078695310224        0.00030836714367
C           -4.06110479764705       -0.06456480365230        0.00084998046163
C           -2.90204251791162        0.71467657327368        0.00063705399566
C           -2.91342931889109        2.17534234046646        0.00072751329433
C           -1.64294635386186        2.62426101922474        0.00068137030355
C           -0.75396006631127        1.46958451875275        0.00063204366331
C           -1.58400981540677        0.28474507759221        0.00059049839219
C           -1.01485424504863       -1.02564064309868        0.00052375708603
C           -1.82866350313068       -2.17689153179050        0.00020267536492
N           -2.49149537715788       -3.11170183539426        0.00052844663650
C            0.35908153054483       -1.11264043308524        0.00055058026679
N            1.13303177385770       -2.24079455179350        0.00045652201449
C            2.37747924322254       -1.84875948288523        0.00055624060841
C            2.49485004188009       -0.37036323367378        0.00070694054546
C            3.70362795244397        0.31543176315412        0.00080528593498
N            4.74207141546236        0.80967146077493        0.00083613867976
C            1.19155322242587        0.08194121584216        0.00064502328819
C            0.61212278028051        1.39165098058367        0.00065445592463
C            1.43524621942129        2.53929547121082        0.00078285431462
N            2.09847817148843        3.47379907439124        0.00093147558229
N            3.43030409029325       -2.67076625674127        0.00053391975464
H            3.26695156817294       -3.66249871541635        0.00047614493454
H            4.36838569030465       -2.31080164853405        0.00059529385741
H           -1.30423708760235        3.64285963483407        0.00072227275367
H           -3.81626905153185        2.75616358426650        0.00080907799826
