20
 energy: -39.272143979594 gnorm: 0.000632898644 xtb: 6.6.1 (8d0f1dd)
N            3.86012423659806        1.30945790256524        0.00062316061142
C            3.03353025551185        0.51258906138187       -0.00146097706748
C            2.07605446881096       -0.50736615301453       -0.00019082607814
C            0.69084527662409       -0.37907058556041        0.00017786186753
C            0.13699704529120       -1.71148726178975        0.00021524005881
C            1.26608888629682       -2.63635314906317        0.00009945039666
C            2.41130763430905       -1.91935739352427       -0.00018205200223
H            3.41966150226344       -2.28787429101475       -0.00050889588300
H            1.16873069636239       -3.70542122593624        0.00007314863938
C           -1.20349719794888       -1.94559191590191        0.00037791250285
C           -2.04699609877943       -0.79957327978221        0.00051486090407
N           -3.35958565138164       -0.71441017411423        0.00066493163570
C           -3.60709100447690        0.64212981332841        0.00082362161636
N           -2.56572910773680        1.41963328306722        0.00078242163173
C           -1.49750778286130        0.55314619413047        0.00052855763878
C           -0.14368730702447        0.78386133246762        0.00036767866179
C            0.40227407047756        2.08444005170720        0.00110616337754
N            0.84589141626647        3.14111026480203       -0.00060512182353
H           -4.61387341779949        1.01375541407576        0.00099266257195
H           -1.63261075200298       -2.93575652602433        0.00043010833982
