22
 energy: -42.728988354416 gnorm: 0.000897546381 xtb: 6.6.1 (8d0f1dd)
N           -0.39269511788428       -4.03774499797650        0.00138629703559
C           -0.31749751812425       -2.89251981342449        0.00110422119260
C           -0.27354612731963       -1.48707315310101       -0.00040367880192
C            0.89783675514030       -0.77324847655488       -0.00161988775754
N            2.19880741795830       -1.17427460821328       -0.00153930367390
C            2.88460687671022       -0.05546610191715       -0.00279267565345
N            2.12765523685767        1.12584992841508       -0.00357754669424
C            0.89887099533251        0.69725594648348       -0.00298935660384
C           -0.33227290427879        1.44886404344379       -0.00316127851555
C           -0.30462100369889        2.85943025421033       -0.00308766358190
N           -0.29656988017207        4.00536424473825       -0.00241443156333
C           -1.48534289874723        0.72499107848972       -0.00227355959855
C           -2.88720632417512        1.15647591507449       -0.00157139187695
C           -3.65553790385966        0.05153492578096        0.00012108827277
C           -2.80174168021985       -1.12847859795819        0.00087906455872
C           -1.49481780034445       -0.72831135831365       -0.00059917873540
H           -3.15895873776390       -2.14256670656156        0.00243073446604
H           -4.72841142750451        0.00814752150174        0.00075075342152
H           -3.19497996829132        2.18459430729472       -0.00270070685457
N            4.21439450536216        0.03023698966259       -0.00488530040822
H            4.76328130288326       -0.81014087354008        0.00226061741709
H            4.64379404243953        0.93754589196556        0.00148811345509
