21
 energy: -43.786072696325 gnorm: 0.000991727495 xtb: 6.6.1 (8d0f1dd)
N           -4.44580553995604       -0.19809111362410       -0.00082304355642
C           -3.37475354652405       -0.61101247504402        0.00132759656263
C           -2.08168702016477       -1.14327047872746        0.00032812887280
C           -1.73938152964854       -2.47243056184262        0.00024943869002
C           -0.31864423648288       -2.58489533607685        0.00034236440432
C            0.23667458619753       -1.31535183164116        0.00026879234820
C           -0.83888217313422       -0.35980156425877        0.00014164520771
C           -0.62757257088348        0.99506808915591       -0.00004506121227
C           -1.66248861389721        1.95536215116354       -0.00184072851663
N           -2.49030957055112        2.74698038674576        0.00190235463034
C            0.74193852488719        1.41851781482849        0.00006503991914
N            1.25291547439012        2.63011254815316       -0.00027547133833
C            2.61166460138783        2.41972274856149        0.00012631162472
N            3.00105177856547        1.17788702456162        0.00049222601773
C            1.83485881535749        0.45358303435388        0.00032787059205
C            1.60607617301889       -0.90096445060169        0.00047474387087
C            2.63811284535920       -1.86210000892491        0.00181692160643
N            3.44654512936691       -2.67436059361532       -0.00103169838002
H            3.29355559317315        3.24781017395460        0.00007541945743
H            0.22729047669352       -3.51155027636612        0.00045656830740
H           -2.42456125415503       -3.29918142255543        0.00041078069191
