24
 energy: -46.966608226533 gnorm: 0.000227540378 xtb: 6.6.1 (8d0f1dd)
N            4.13133527658157        1.31565947578957       -0.00137458633633
C            3.20204001738144        0.63809645607013       -0.00099103080409
C            2.12278734554878       -0.24295504480944       -0.00072463170471
C            0.71605672858927        0.10436490476267       -0.00043345830994
C           -0.02200619927552       -1.14910835622894       -0.00065108997350
C            0.88241484755097       -2.18057796615946       -0.00097689328193
C            2.21679279886132       -1.62932870646430       -0.00104387143221
N            3.34132010539743       -2.36923632732277       -0.00042135392176
H            4.23819308155858       -1.91601103091033       -0.00276774545276
H            3.29588523956066       -3.37162435870401       -0.00400160913851
H            0.65515774589529       -3.23155067544031       -0.00115025197815
C           -1.45516019234509       -1.16868613732084       -0.00050884193134
C           -2.13210740068584       -2.40688515715656       -0.00049624302371
N           -2.63447430387499       -3.43693151367195       -0.00111083817598
C           -2.09665159570216        0.04035518285495       -0.00020915070691
N           -3.45996796686426        0.29156588444612       -0.00003828856555
C           -3.58794705705299        1.57852919696034        0.00028941274852
C           -2.31534073106660        2.27966465994521        0.00035580513421
C           -1.36341963631680        1.29784656861429        0.00002845138412
C            0.07577681547021        1.31276537375030       -0.00010417453686
C            0.74519009475122        2.55363592869092        0.00003797090194
N            1.24232419629602        3.58693515009461        0.00030686892590
H           -2.17712059929850        3.34361702072568        0.00061973016471
H           -4.55800023236004        2.04123477718413        0.00048004411482
