19
 energy: -38.765614125980 gnorm: 0.000826017819 xtb: 6.6.1 (8d0f1dd)
N            3.95899043368449        2.24775256039349       -0.05475529100552
C            3.30035342704695        1.30819627776565       -0.02033012813780
C            2.52370186977742        0.14634045683776        0.01395048216973
C            1.11967885515655        0.10172841031347        0.12443864831872
C            0.80478873902586       -1.38476430307132        0.07135789570523
N            1.93151061090386       -2.04280692858565       -0.00097939679170
C            2.95345818907801       -1.18560517330379       -0.00333801543266
H            3.96512246570631       -1.54201317539916       -0.02566459615401
N           -0.44094340051634       -1.68421006504192       -0.07009958236868
C           -1.43928390971373       -0.89157107911061       -0.08270138396371
C           -2.81890885215497       -0.92171516664835       -0.01854599816830
C           -3.25634905252294        0.41303311583491       -0.01190169451932
N           -2.22906962665590        1.29399845686444        0.01053207925801
C           -1.10673381082784        0.64389085478639       -0.02774029907700
N            0.13072440597760        0.92171688558683        0.06574191823890
N           -4.52486871426186        0.85558097054508        0.01894831107868
H           -4.69478038336623        1.84436268439023        0.00317002301240
H           -5.29176896191377        0.21056967767330        0.00698090307362
H           -3.41865969912320       -1.80810104803074        0.02562139296327
