21
 energy: -42.988942586975 gnorm: 0.000904664038 xtb: 6.6.1 (8d0f1dd)
N           -3.94353705922027       -2.17381065057552        0.15455279625058
C           -3.11473223053854       -1.38025632345635        0.10381162477666
C           -2.16621562973128       -0.35797007411463        0.02992568991865
C           -0.73979591531425       -0.49871492099309        0.04209653246926
N            0.00046517419176       -1.54841298790934       -0.00477328886788
C            1.31645654695865       -1.43628560546241       -0.06464650047489
N            2.25827324257311       -2.29714531387103        0.20877621554512
C            3.43134217857039       -1.63424432185551       -0.02658966002046
N            3.32408028897000       -0.36542096133434       -0.31348853033444
C            1.99583370838438       -0.12204389809597       -0.31430992664287
C            1.25519323051651        1.00740911978052       -0.06636251755409
C            1.85952172076505        2.24820481528766        0.22825030786404
N            2.30690098223921        3.28163938610434        0.43927328773404
C           -0.16444599517137        0.87389537363209        0.01443409974331
C           -1.19860246519445        1.74841587876245       -0.08516196514129
C           -2.45053353666677        1.00139390212152       -0.01306616432006
N           -3.65942847395493        1.57563191499207       -0.03909585980037
H           -3.75552594104997        2.57564594193190       -0.05526016724078
H           -4.48459848842435        1.00098790717726        0.00215710195133
H           -1.13536570389706        2.80360631832184       -0.28032442115106
H            4.37478049349558       -2.14018090504425        0.04556909969465
