23
 energy: -42.443053379622 gnorm: 0.000921864771 xtb: 6.6.1 (8d0f1dd)
N           -3.38262492271800       -2.11078296644886       -0.01357937678676
C           -2.69546584332255       -1.18804298238002        0.00390868330887
C           -1.92260547169082       -0.03085036748134        0.01510090381227
C           -0.47934979793639        0.04994556809215        0.01136359362858
C           -0.14149538452099        1.46705458007709        0.01083999865845
C           -1.31698428210659        2.18924119586279        0.01589947162724
C           -2.41948708560587        1.27156338740345        0.01720081626213
N           -3.72043347345838        1.63680826227302        0.06373216113968
H           -3.97374007731508        2.59552466853455       -0.09459843803708
H           -4.42750709612163        0.93059363453882       -0.04878625085717
H           -1.40438604881791        3.25953460634273        0.01890900869270
N            1.12264828985263        1.95048713235952        0.00470658630642
C            2.05929293577633        1.05796527523451        0.00039922088236
C            3.50479209359419        1.27085190488428       -0.00743906766409
C            4.09846077873277        0.05733436784956       -0.01270809879733
C            3.08652418800374       -0.97976860828265       -0.00851308985502
C            1.85347962450539       -0.38587046607737       -0.00008468939646
C            0.51358520715763       -0.89590348628343        0.00605565006996
C            0.28160639828708       -2.28708841028864        0.00641280093257
N            0.13857498050372       -3.42512202372220        0.00585311917698
H            3.28947755551639       -2.03624447301618       -0.01232674982376
H            5.15363169608145       -0.14367697633132       -0.01914032205470
H            3.96794242940288        2.23794171035961       -0.00816832512584
