19
 energy: -33.955198077063 gnorm: 0.000472871623 xtb: 6.6.1 (8d0f1dd)
N            4.13011075868513        0.08434817031199       -0.08201091023629
C            2.78718848516186        0.00966700587144        0.00791756257494
N            2.03370447565216        1.10523344988787        0.07336617912833
C            0.76302207630107        0.71147308738040        0.06996185850340
C            0.70847005118089       -0.81152964569653        0.13083333644294
C            2.01678164723140       -1.19482560125822       -0.02951614918390
H            2.38341499584338       -2.18667449514645       -0.20654477631993
N           -0.45669246021372       -1.39901768439718        0.20429610875017
C           -1.55458522700063       -0.76460286915319       -0.03980763057058
C           -2.93201887990138       -1.12561197320846        0.04000141078715
C           -3.66501372693739        0.02714039149061       -0.00074198002625
C           -2.79862150092092        1.15739000449113       -0.06307457053787
C           -1.50153116561665        0.71681734877256       -0.19499123374725
N           -0.33057869560315        1.33270288976872       -0.16875020675939
H           -3.08788096494179        2.17980850655622        0.08908632088373
H           -4.73702431670277        0.09315459188447        0.03293285206548
H           -3.29178963328949       -2.13575127906833       -0.00457076594183
H            4.55751049139803        0.97799564136492        0.08828688765624
H            4.67983286657396       -0.74670715335198        0.04154491903085
