22
 energy: -37.925413706476 gnorm: 0.000875860280 xtb: 6.6.1 (8d0f1dd)
N           -3.33160280450912       -2.46958263198617        0.01567725459850
C           -2.67965110709429       -1.52007032102107       -0.00908330342500
C           -1.90847153536584       -0.36553501882929       -0.02427709664421
C           -0.45520657435119       -0.31346814524201       -0.01853929312946
C           -0.10042414482023        1.09431956795359       -0.01775712245980
C           -1.26445120592338        1.83824453707328       -0.02673168794866
C           -2.38164505014807        0.94256323358021       -0.02887354936473
N           -3.68090544536754        1.33585087688174       -0.09369563550479
H           -4.39347123544748        0.64428912153313        0.06970847191272
H           -3.90685421417397        2.28907514321518        0.12983321329015
H           -1.33387494884653        2.91005005779246       -0.03222625713304
N            1.17395050397625        1.55547847590013       -0.00865243389669
C            2.08906503531311        0.64118595790213       -0.00348328785244
C            3.53764827336449        0.82270691089407        0.00748976930577
C            4.10414412667247       -0.40409697142208        0.01379756955764
C            3.06981963605916       -1.41672096486918        0.00752214596141
C            1.84637301952221       -0.79997199347661       -0.00415194898254
C            0.50633980834881       -1.27515654003864       -0.01311057562598
H            0.28196781570331       -2.33264949046404       -0.01619721255584
H            3.25509202639198       -2.47641881038528        0.01277353845946
H            5.15512274223055       -0.62768129809706        0.02246585058390
H            4.02414616466514        1.77841361190532        0.00890529465360
