19
 energy: -34.745023825265 gnorm: 0.000509243428 xtb: 6.6.1 (8d0f1dd)
N            3.76978104564175        1.94891936166635        0.00061988857312
C            3.03921459493715        1.06061430828942        0.00157937819971
C            2.16740718351208       -0.02515512769712        0.00040439943472
C            0.74268222341654        0.05095701281193       -0.00002333588030
N           -0.08038068908149        1.07171004292414       -0.00044202234188
C           -1.36626326435415        0.81907196796101       -0.00005136057863
C           -2.50212364923346        1.66494580368141        0.00029467655719
C           -3.63889429593485        0.86097049880812        0.00013598034153
C           -3.27687174195741       -0.48426516146248        0.00006112757634
C           -1.86288538655629       -0.55910751814436        0.00036063656529
N           -1.03596570544876       -1.57604885703076        0.00075462234971
C            0.25296532056203       -1.32193281152552        0.00031658857212
C            1.38590209690268       -2.17403893017727        0.00003239676425
C            2.52500096224229       -1.38952598610705        0.00017072636131
H            3.53779045181921       -1.74769063111897        0.00021663344854
H            1.34691792420480       -3.24679041498075       -0.00054890849285
H           -3.93780955127687       -1.33017018317684       -0.00069778908368
H           -4.64950210975444        1.22531546184114        0.00013791962071
H           -2.46982622744071        2.73787736563762        0.00105279861285
