24
 energy: -42.173266975307 gnorm: 0.000790645765 xtb: 6.6.1 (8d0f1dd)
N           -0.29604497417809       -3.99496088349372        0.00978846167298
C           -0.32499044171066       -2.84832067562707        0.01254449356062
C           -0.34564211710874       -1.43774769930994        0.01486433487181
C           -1.52547190666187       -0.72279244523935        0.00313255688821
C           -2.90660687735429       -1.14737686278907       -0.01312628242863
C           -3.68807925359682       -0.03071139047619       -0.02453104380272
C           -2.85137124295107        1.12755300367261       -0.01497199786096
C           -1.52988020867695        0.71575223676085        0.00187132181386
C           -0.30602576189838        1.45170755738701        0.01484934822173
C           -0.32504789733576        2.85979089274742        0.01233029738128
N           -0.34479807805019        4.00724448174700        0.00613066453938
C            0.87351930924106        0.74009344666001        0.02755078469488
C            2.24213703882470        1.15997771205590        0.03376888986221
C            3.03585085945520        0.03239235935288        0.03516787617315
C            2.19173894778775       -1.12653379934354        0.03294364874284
C            0.87234204818939       -0.70861530597550        0.02630660881034
H            2.53868592952257       -2.14450080755458        0.03541330661904
N            4.40028862598322       -0.02319391146101        0.10843297910424
H            4.90317961669804        0.81995634376202       -0.11203287539178
H            4.84198163636294       -0.88210358200682       -0.17446787540741
H            2.57168691379170        2.18144109602033        0.03737748794215
H           -3.19777580963049        2.14560511516199       -0.02084367952025
H           -4.76150179631852       -0.00219223848765       -0.03853554842259
H           -3.22703683048475       -2.17254834356358       -0.01606109366437
