22
 energy: -42.709610542333 gnorm: 0.000491383472 xtb: 6.6.1 (8d0f1dd)
N           -4.24938003500842       -1.44854702029455       -0.01697092536320
C           -3.42368354682722       -0.64938102406270       -0.01389749691858
C           -2.45490200198562        0.35237374541494       -0.00659418214426
C           -1.08616631534087        0.25904963410027        0.00197929409048
C           -0.59811370120415        1.64738511690334        0.00390529459358
N           -1.67809178628065        2.52327026143695       -0.00365914761944
C           -2.73828852954569        1.80329616565388       -0.00935541636614
H           -3.72430188774273        2.23119302557616       -0.01607337364336
N            0.64129942279136        2.00213034459538        0.01019118643537
C            1.53470715979957        0.98725262168018        0.01650950502251
C            2.90345398129953        1.07240515578227        0.02062877554957
C            3.44541806351324       -0.27876682983347        0.02013774951096
C            2.41069331120671       -1.17726766100528        0.02037231581294
C            1.18234049744142       -0.43656965874291        0.01729701151174
C           -0.13607789087257       -0.81596019634660        0.00868888340161
C           -0.54649605057160       -2.16437966054863        0.00578984325174
N           -0.86328223103515       -3.26681456689306       -0.00003022973302
H            2.47971651520699       -2.24784260019216        0.02273910490937
N            4.77733277272571       -0.53029254011751        0.07111863726521
H            5.42256882656288        0.21363104449458       -0.12812295457527
H            5.09568260366267       -1.47255348234103       -0.07357592761352
H            3.48757755270453        1.97367517653991        0.02432082502173
