22
 energy: -41.940764470905 gnorm: 0.000560293979 xtb: 6.6.1 (8d0f1dd)
N            0.03321577892990       -3.66482673253292        0.00141463676524
C           -0.04199186391579       -2.51858133884695       -0.00285019041487
C           -0.07009706836276       -1.11477995811067       -0.00291772461245
C           -1.21643773843162       -0.37193355498901       -0.00311064746344
N           -2.52439944037438       -0.74056941968566       -0.00228326676504
C           -3.17853752404477        0.39858828172516       -0.00314909616933
N           -2.39663035096672        1.56528716061462       -0.00465024189301
C           -1.17495389735822        1.11745126497797       -0.00473674231171
C            0.05034505398037        1.83982451308295       -0.00604530713265
C            1.18720082372654        1.10333679413816       -0.00570939663482
N            2.48840573181884        1.55765114708205       -0.00688763961596
C            3.24208046858880        0.49395751413558       -0.00614950955078
C            2.46402783425982       -0.76550261555426       -0.00443441297948
C            1.16913782653729       -0.37787355165483       -0.00412436638964
H            2.87759908273832       -1.75551615507492       -0.00357145565907
N            4.57877644477635        0.52964890271435       -0.00647491791326
H            5.03936579857598        1.42291385771390       -0.00859053807326
H            5.11989045832318       -0.31563671252678       -0.00752829036505
H            0.05207539737462        2.91685367075700       -0.00724521930815
N           -4.50433360930003        0.51067661751618       -0.00277951702245
H           -4.91657939271687        1.42619939144372       -0.00314520378118
H           -5.07003257365881       -0.31905520062565       -0.00134728360964
