23
 energy: -42.454949302686 gnorm: 0.000423823122 xtb: 6.6.1 (8d0f1dd)
N            4.10370778870727        1.63217611216590       -0.01196978663594
C            3.39824410914518        0.72549436349336       -0.00771830778653
C            2.55638778904248       -0.38868789699115       -0.00504935055563
C            1.09104097122364       -0.34431210440999        0.00346008395023
C            0.63356207016351       -1.72377694957902        0.00229680580532
C            1.74939295568285       -2.52720540274141       -0.00580270649873
C            2.92411621590127       -1.70641589594043       -0.01043652536293
H            3.93269128962903       -2.07739310321972       -0.01738745764512
H            1.76016782410159       -3.60178151557460       -0.00848803647784
C           -0.75362936076668       -2.04035494733441        0.00928489490676
C           -1.63387183489458       -1.00559611969160        0.01612814958595
N           -3.01297747278010       -1.04858542437372        0.01703961530869
C           -3.41859605917811        0.19269852232498        0.02052542219376
C           -2.31174799030825        1.15187656963909        0.02055602013209
C           -1.18381917374060        0.38409903008087        0.01651906187613
C            0.21895099739337        0.70329960823038        0.01085791284081
C            0.60417050567627        2.06132928655442        0.01119975562572
N            0.85252072353134        3.18057825158814        0.01059888153439
H           -2.40124824440843        2.22163483985861        0.02436624162627
N           -4.71763223599128        0.55167782219561        0.07111320160016
H           -4.98185096031106        1.49827075170564       -0.13574391291644
H           -5.40261222396044       -0.17535064628470       -0.04238405632493
H           -1.08270858325818       -3.06675667839629        0.00935102511782
