24
 energy: -46.183521024195 gnorm: 0.000475703710 xtb: 6.6.1 (8d0f1dd)
N           -3.68992715020720       -2.14687290539839        0.00235816420136
C           -2.94768500443366       -1.26775453123142        0.00082954902071
C           -2.16367957037907       -0.12000208463124       -0.00035930438802
C           -0.80802231563083        0.07319424543993       -0.00346078265833
C           -0.61336375206498        1.53051840563838       -0.00321548195070
N           -1.83198106510705        2.17785933910805       -0.00006040654579
C           -2.74408481321820        1.25371035873170        0.00164821021270
N           -4.06307596829636        1.47615417330447        0.00499276742824
H           -4.70970664916430        0.70715243263967        0.00556289762707
H           -4.39882245009692        2.42273466860925        0.00577698166102
C            0.62275183043252        2.08454383717533       -0.00585357109913
C            1.73795723883600        1.19610308069541       -0.00893099559534
C            3.08279775261622        1.38798352639570       -0.01204658323229
C            3.66826844202771        0.03791972068937       -0.01412248103140
N            2.76297613509967       -0.90904945417210       -0.01244402988776
C            1.55361382307636       -0.27149572306391       -0.00924194405257
C            0.30452632576680       -0.83175795524884       -0.00655920352993
C            0.08929227962106       -2.22341006340258       -0.00675862057873
N           -0.10869161486277       -3.35328558205434       -0.00674100961236
N            4.98221618276813       -0.20874836219701       -0.01728101865417
H            5.65304491026023        0.53762258493039       -0.01893300220793
H            5.29008853430635       -1.16567917044090       -0.01873346413833
H            3.63914020353948        2.30506462619014       -0.01289632553259
H            0.76851468801072        3.15263458589293       -0.00566580135572
