22
 energy: -33.145634456933 gnorm: 0.000734120374 xtb: 6.6.1 (8d0f1dd)
N           -0.00014437522280       -2.55341657844101        0.00089546477815
C           -0.00006697400361       -1.20882584850188        0.00094739682328
C           -1.20103062572143       -0.46815444673623        0.00095783538784
C           -2.54618970145055       -0.87039838590198        0.00097147859654
C           -3.35196027005208        0.27418642203150        0.00098331496390
C           -2.54167721236313        1.39516933114708        0.00098228346505
C           -1.18875432539972        0.96834446385079        0.00096204631438
C            0.00010644344637        1.68377099378355        0.00095126049297
C            1.18889811731110        0.96819222734727        0.00094039973655
C            2.54186005371898        1.39485397924297        0.00093658230313
C            3.35201339258860        0.27376464902119        0.00092417861293
C            2.54610749215308       -0.87071946793005        0.00092717482165
C            1.20099526732313       -0.46830168002164        0.00093642807583
H            2.91374118001189       -1.88285005810552        0.00091624589960
H            4.42725784337837        0.27286702539952        0.00091585471639
H            2.87018638758205        2.41843878997911        0.00094243481379
H            0.00017850835437        2.76511105885188        0.00095457735495
H           -2.86987418314355        2.41879682469279        0.00099489363309
H           -4.42720565623547        0.27341562490049        0.00099382908492
H           -2.91394761145708       -1.88248598661871        0.00096634887990
H           -0.86672505700206       -3.06008272320866        0.00110072975574
H            0.86637736618351       -3.06018372978247        0.00108564388942
