25
 energy: -40.316544179322 gnorm: 0.000540113431 xtb: 6.6.1 (8d0f1dd)
N           -3.30319002177938       -1.37586544194492       -0.07861548796912
C           -2.45849678581248       -0.29482315370558       -0.03647162888088
N           -2.95525635219163        0.95580142295820        0.01126095671746
C           -1.90797269902601        1.78319411705084        0.04572368486210
C           -0.68641010223725        1.09665403225635        0.02106615930746
C           -1.04362231550548       -0.29594473929271       -0.00861915247489
C           -0.07717579668340       -1.30981174429940        0.02205075724598
N           -0.41916135685034       -2.62589871576903        0.05430853851187
H           -1.33106656745646       -2.86150070222061        0.40934558680545
H            0.31957999307537       -3.28244252979778        0.24593951303118
C            1.26651991180688       -0.89383551919681       -0.00859992189732
C            2.46321706864390       -1.63162358393896       -0.01459044481394
C            3.52951707349631       -0.73790972204054       -0.02919829250656
C            3.03481356086854        0.56030464709907       -0.02493730420540
C            1.62824980053870        0.49894158190186       -0.01445525869228
C            0.65864728466403        1.51487489383068        0.01463455166228
N            0.99221642106371        2.82093535721874        0.04808060595584
H            0.27868388398782        3.52420583913518       -0.00862297748666
H            1.95474492913359        3.09195193891281       -0.03780307063642
H            3.63462506449107        1.45402386626193       -0.02343925534464
H            4.57015832996307       -1.00962903543808       -0.03938486383601
H            2.55302048934998       -2.70435185049132       -0.02081758841101
H           -2.07606964688012        2.84576701119139        0.08096587679067
H           -3.01494296188611       -2.13756810996669       -0.67499122295054
H           -4.26599868567443       -1.09933403801471       -0.21229328718465
