19
 energy: -39.537859702195 gnorm: 0.000560877029 xtb: 6.6.1 (8d0f1dd)
N            4.39207800307440        1.24232385541215        0.36200812440521
C            3.47170118719433        0.57392491477932        0.19879985140733
C            2.37799782494364       -0.25878555842441       -0.03455673763587
C            1.02621748374741        0.15244667285193       -0.12261532337016
N            0.50224860177054        1.36165781298471       -0.07506645463513
C           -0.76610834371700        1.52409755667126        0.06041044688547
N           -1.53393584209798        2.62958841897929        0.06317473752288
C           -2.75882013637203        2.19467822813407       -0.07130457992297
N           -2.89528227998711        0.84227618135149       -0.21160854859710
C           -1.70321617447070        0.34933779853389       -0.02955487259629
C           -1.14389129325530       -0.94657195478001       -0.01365013219626
C           -1.94765598468886       -2.06585953103384        0.29921935070010
N           -2.58389038404552       -2.99371972637778        0.51162961719270
C            0.22817386444968       -1.05432143893454       -0.14419923955955
C            1.13795294209863       -2.16644314270582       -0.18026964817811
C            2.41492356660073       -1.68445998449101       -0.10294964303514
H            3.32108885839370       -2.26030018069073       -0.10164331109559
H            0.83879148421604       -3.18616973115705       -0.33707217495114
H           -3.61279008945456        2.84332784149849       -0.09871041324180
