27
 energy: -43.749934801688 gnorm: 0.000557128693 xtb: 6.6.1 (8d0f1dd)
N            2.59617955667132        2.43313045393374        0.16048327540350
C            2.14941746560537        1.13319156075887        0.07647321576485
C            2.96056351667627        0.00045051168115        0.00027722462695
C            2.14970207190087       -1.13248361795402       -0.07607769451478
N            2.59679012860156       -2.43231607781256       -0.16000014393197
H            3.57915807175389       -2.51796315876302       -0.37859497968470
H            2.01479521923711       -3.05187172845267       -0.70450117920790
C            0.78943192740692       -0.72188057531246       -0.01716532840636
C            0.78925672717180        0.72226484192960        0.01729225619027
C           -0.39397259889281        1.45754732415143       -0.04040594720645
N           -0.41086880790029        2.82601295251564       -0.08929061242843
H            0.38015732163491        3.27396588818404       -0.52412290786607
H           -1.30574052180814        3.23616861204397       -0.30590501674674
C           -1.59296193532098        0.71842861821945       -0.02327862005427
C           -2.94844825643875        1.07438162854926       -0.03329257169390
N           -3.74376440735611       -0.00034711030565       -0.00038747797567
C           -2.94819912910011       -1.07488634671903        0.03269098248181
C           -1.59279557722649       -0.71861108248200        0.02293829288503
C           -0.39363377305581       -1.45744461057990        0.04029907972424
N           -0.41021406007073       -2.82591414494494        0.08918145334617
H            0.38083290892849       -3.27367848805414        0.52416941803230
H           -1.30503078996004       -3.23628250237171        0.30561994285693
H           -3.38158602763705       -2.06049052711544        0.04794148421730
H           -3.38206673865669        2.05988266972893       -0.04863096059790
H            4.03609228508756        0.00057852580946        0.00038260625495
H            2.01392996919611        3.05254761502187        0.70486961315918
H            3.57848405705181        2.51901152134007        0.37927135597169
