23
 energy: -42.443493271395 gnorm: 0.000272950577 xtb: 6.6.1 (8d0f1dd)
N            0.31581553046830        4.04193353403263        0.00215604273764
C            0.29242382307632        2.89435810410985        0.00673436592462
C            0.27915660521094        1.48703163801899        0.00964486385853
C            1.52198458256475        0.76074114278545       -0.00085953849859
C            2.83610236359119        1.13954359876596       -0.01369548468293
C            3.59153992396166       -0.09911942356485       -0.01957995091259
N            2.84087853700879       -1.15371084067147       -0.01130855171662
C            1.53358385645033       -0.69395439719679        0.00070242161338
C            0.37483129610028       -1.42502922678707        0.01102199528585
C            0.35047853157048       -2.83565948128960        0.00975396544486
N            0.27770072768580       -3.97967160468018        0.00744324863317
C           -0.85819007918429       -0.69840707990742        0.02022014417694
C           -2.15681270963085       -1.13252182375651        0.02677470467851
C           -3.03069230708049        0.02780572606228        0.02691481629764
C           -2.26095980604933        1.16060527500209        0.02530014880708
C           -0.88168955299925        0.76023411985974        0.02059033595376
H           -2.60148771690760        2.17776256715940        0.02787390095310
N           -4.38650408282137       -0.07211367114646        0.09049494718081
H           -4.92788408317011        0.75620485090096       -0.08837372018605
H           -4.81123913092367       -0.95027834986895       -0.15316680682655
H           -2.49335557956710       -2.15396329638349        0.03141609010818
H            4.66338383270032       -0.17981857603281       -0.03003822740488
H            3.24526942534491        2.13153525128827       -0.01880225792583
