26
 energy: -40.028180531494 gnorm: 0.000702609887 xtb: 6.6.1 (8d0f1dd)
N           -2.97988921016723       -2.28148145557765       -0.06966601512249
C           -2.54756353956018       -0.98343874112437       -0.00572637127717
C           -3.35629519879830        0.15671577194494       -0.01218188658838
C           -2.54455591739901        1.28489410235177       -0.00156592254603
C           -1.19703101918136        0.88128293064499        0.01079507832166
C           -1.18549677071395       -0.55919714385139        0.00314457614496
C           -0.00001444722802       -1.27369806834011        0.00432779982510
C            1.18544511012650       -0.55916051972705        0.01418299004205
C            2.54754245727422       -0.98325472630814        0.00975107258552
C            3.35625857306887        0.15688404683017        0.02868564687421
C            2.54440955117028        1.28490764634451        0.03892956504279
C            1.19680216802333        0.88129419664350        0.02878758535382
C           -0.00014061955174        1.61436162205512        0.02610573087467
N           -0.00081212135431        2.97526610711283        0.08796506734212
H            0.85908314935343        3.46023712215981       -0.09715437351707
H           -0.85602046846323        3.46036597139651       -0.11786040024710
H            2.90630253391177        2.29883615098407        0.05343332665040
H            4.43170876127633        0.15354028914193        0.03191688772573
N            2.98050193885006       -2.28194437726567        0.04692624516884
H            2.32878604754233       -2.98812865701171       -0.25229666893687
H            3.94068252221700       -2.44560199285960       -0.20812589257988
H            0.00009489475162       -2.35758359882625       -0.00280807138843
H           -2.90659439027277        2.29883166193049        0.00366863107370
H           -4.43170517319096        0.15337808965570       -0.02090316292723
H           -2.32954581821559       -2.99187730470605        0.22250583169072
H           -3.94108658566909       -2.44941545049819        0.17900984951441
