22
 energy: -37.928501561898 gnorm: 0.000572918813 xtb: 6.6.1 (8d0f1dd)
N           -4.08040686293819       -2.17795933325024        0.02275869490063
C           -3.38962660017374       -1.25838999721216        0.01528589949573
C           -2.55890493999033       -0.14182614908175        0.00832274201115
C           -1.17408634360705       -0.08990814562994       -0.00360050453040
C           -0.84555907783471        1.31967122164158       -0.00298554623185
N           -2.00531874916117        2.08135656081922        0.00829014079905
C           -2.99335718411147        1.25099197539890        0.01502866576702
H           -4.01668771903703        1.58006605473913        0.02488475047648
C            0.44811547480390        1.75255863505678       -0.01030700902786
C            1.45726682857339        0.75928220094852       -0.01828232404949
C            2.83037243943944        0.86307368644771       -0.02101785451356
C            3.40194350136641       -0.46464720861287       -0.02197205134961
C            2.38603590295759       -1.37910902125981       -0.02496072307611
C            1.12998085516782       -0.65841784887412       -0.02236446106371
C           -0.15737758282923       -1.08897792772557       -0.01472226094668
H           -0.42519039735184       -2.13565219555344       -0.01708135964334
H            2.47803293686771       -2.44801867281105       -0.03055392511943
N            4.75224794267817       -0.69570075894707       -0.09546269608625
H            5.05811792761613       -1.62862539055783        0.12766639150953
H            5.35693043366037        0.03974436689115        0.23238289099243
H            3.40577383216816        1.77232557659939       -0.02258349635828
H            0.69556085583568        2.80294017157344       -0.00939939335546
