21
 energy: -38.204837702716 gnorm: 0.000416134780 xtb: 6.6.1 (8d0f1dd)
N           -3.80493947485998       -2.32369437030324       -0.00042055699856
C           -3.17378653416708       -1.36293156033120       -0.00253795190211
C           -2.45553608099150       -0.16725579656498       -0.00086279944445
C           -1.08263443480509       -0.00246205129463       -0.00047766145900
C           -0.82024294593758        1.43503810776886        0.00014929435166
C           -2.11809477859810        2.10032558530644        0.00037296665044
C           -3.07747184507206        1.15706870786529       -0.00018872197174
H           -4.14191363769184        1.30355296918414       -0.00039164278209
H           -2.25022068439109        3.16611663981408        0.00072770363712
C            0.44910305309549        1.90476095396930        0.00044817124801
C            1.47436861928348        0.91161135316871        0.00011062531356
C            2.82936023505037        0.92604019339798        0.00027548753329
C            3.22815765355250       -0.49470201724605       -0.00023500501119
N            2.21145440896318       -1.31275428841370       -0.00074773649172
C            1.08877911693396       -0.52951528999057       -0.00058607193211
N           -0.12694736151000       -0.96176457727921       -0.00092251739727
N            4.50296885520045       -0.90486294561452       -0.00092358138729
H            5.26293301444191       -0.24978647134886        0.00255374568875
H            4.68766038300960       -1.89257694985383        0.00031441300999
H            3.50673572802799        1.75947080540169        0.00063674164024
H            0.69503122056539        2.95862315866430        0.00096083480443
