20
 energy: -34.490597280768 gnorm: 0.000384235506 xtb: 6.6.1 (8d0f1dd)
N           -5.15712046031081        0.00001516790945        0.00021846003943
C           -4.00946067341973        0.00001074982635        0.00019853355327
C           -2.60621699192226        0.00001356305779        0.00011336685366
C           -1.79169981772527        1.14357069902657        0.00011541340777
C           -0.44575661282155        0.72342791659795       -0.00000475771058
C           -0.44575611198409       -0.72339956802902       -0.00007972494546
C           -1.79169836809498       -1.14354321706920       -0.00000310750348
H           -2.14172972962954       -2.15972928528869       -0.00002969062747
C            0.73965197412059       -1.44812931645065       -0.00020220354818
C            1.92237072509051       -0.72042733220385       -0.00024889172749
C            3.29250060345222       -1.07533316042770       -0.00036143833515
N            4.08433617175583        0.00001462457566       -0.00035953083268
C            3.29249948106575        1.07536248345114       -0.00024984215293
C            1.92237035950920        0.72045611067956       -0.00017432501334
C            0.73965083439392        1.44815790007000       -0.00005234369583
H            0.74021398684125        2.52888914671756        0.00000291849332
H            3.71586865361251        2.06373530773192       -0.00022713071191
H            3.71586982216806       -2.06370597374363       -0.00044166153190
H            0.74021501911523       -2.52886056216109       -0.00025847432774
H           -2.14173142241684        2.15975670532985        0.00019421251668
