21
 energy: -34.219066164621 gnorm: 0.000838361005 xtb: 6.6.1 (8d0f1dd)
N           -5.13735780044664       -0.00047079837856        0.00136354496999
C           -3.98903344381317        0.00049570652153       -0.00044261427518
C           -2.58744962763293        0.00025023856273        0.00015991685025
C           -1.77089838436553       -1.14292571495213        0.00036857127865
C           -0.42665242527092       -0.72048615254483        0.00027564210556
C           -0.42655256677384        0.72061772175063        0.00017372564667
C           -1.77072254774436        1.14326975429849        0.00020711812393
H           -2.11955442464794        2.16001898614801        0.00007232229284
C            0.76536156128945        1.44163766173035        0.00002896082156
C            1.94881028249696        0.72061349096715        0.00000143941985
C            3.30508474468919        1.13375086740592       -0.00012104398846
C            4.11206972337980       -0.00016537086181       -0.00009510286574
C            3.30498875241846       -1.13400894244706        0.00003923162216
C            1.94873260586643       -0.72075656925684        0.00010348183202
C            0.76519727126743       -1.44164855918417        0.00023286776152
H            0.76362300663881       -2.52277504128429        0.00027104521180
H            3.64543201544934       -2.15378871051797        0.00006966550582
H            5.18677269038563       -0.00020079929106       -0.00019487099645
H            3.64560545800747        2.15350492759030       -0.00023496686370
H            0.76391176869285        2.52276312985502       -0.00008489492291
H           -2.11989409578648       -2.15962074921139        0.00037773866981
