21
 energy: -38.204290351189 gnorm: 0.000574405730 xtb: 6.6.1 (8d0f1dd)
N           -3.26412272740282       -2.53197997761331        0.01225445499869
C           -2.64025141391618       -1.56501278832073       -0.00276514284666
C           -1.91704094186691       -0.37713686929369       -0.01115417578366
C           -0.45791054078209       -0.26297205289527       -0.00937180041428
C           -0.15724149833816        1.16545644013701       -0.00759458588267
C           -1.34229733116103        1.84753747270645       -0.00927379194036
C           -2.44106969529891        0.89990599886192       -0.00948778435057
N           -3.74359724019312        1.26125212474994       -0.05451239572410
H           -4.00287371294295        2.21609639491939        0.11822415247266
H           -4.44762958229967        0.55142157657716        0.05457314821118
H           -1.47191485388847        2.91555773451890       -0.01086281941848
C            1.18990222883941        1.64365484247896       -0.00322806313056
C            2.16091587951007        0.70125101842543        0.00095238152902
N            3.54358857299745        0.81198465442279        0.00722604879858
C            3.95822037431483       -0.41045693000705        0.01021620236886
N            2.98081308102918       -1.40231327996791        0.00663938638613
C            1.85884552402423       -0.73582219028272        0.00077046614324
C            0.50680461930901       -1.20955279164447       -0.00520298140014
H            0.30125851599754       -2.26867884757881       -0.00642722185391
H            4.99783200069572       -0.67946772203190        0.01561475618164
H            1.40231804957282        2.70168702803784       -0.00276472554460
