24
 energy: -41.406072049545 gnorm: 0.000325888112 xtb: 6.6.1 (8d0f1dd)
N            5.70300369490601       -0.00089640145988       -0.00048199486449
C            4.55350283596649       -0.00113731185136       -0.00002376832545
C            3.15372021921857       -0.00076026183171       -0.00006084354761
C            2.34249205249822       -1.14761741056771       -0.00007886944498
C            1.00640761720075       -0.72864340146813        0.00003247993421
C            1.00671806574548        0.72806870069146        0.00007185633844
C            2.34299158224838        1.14646229929604       -0.00001747757412
H            2.69666905045010        2.16132812809906        0.00000657531559
C           -0.18565632493039        1.44600870736750        0.00021304573026
C           -1.35812224911923        0.71865951385613        0.00028339291746
C           -2.74713493817322        1.07817482049293        0.00042205475760
N           -3.55044414978383        0.00066308967036        0.00045440843371
C           -2.74757758244158       -1.07717878757466        0.00035826567666
C           -1.35842019888936       -0.71823947551964        0.00024268990089
C           -0.18626239870886       -1.44608069182023        0.00013259008214
H           -0.18158801849200       -2.52794354305731        0.00010883205177
N           -3.25274684065015       -2.31234769610496        0.00035058000641
H           -4.25046935431093       -2.43088361546244        0.00053606492948
H           -2.64788822117918       -3.11316280374075        0.00043434850776
N           -3.25180496073912        2.31355016073643        0.00046529468333
H           -2.64662543059993        3.11412254101083        0.00068109669113
H           -4.24948010062065        2.43248966528959        0.00072111417710
H           -0.18053857598449        2.52786945918596        0.00024867166673
H            2.69574279788892       -2.16262932653749       -0.00010820304403
