22
 energy: -43.518118341525 gnorm: 0.000817708024 xtb: 6.6.1 (8d0f1dd)
N           -4.97071213410178       -1.22703366349817        0.00262033289546
C           -4.04566919951211       -0.54561699235198        0.00045530162118
C           -2.92853609056455        0.29001254584946        0.00097058601645
C           -1.54444824425046       -0.15730428841765        0.00134870554762
N           -1.09269037850797       -1.38322242057830        0.00185920057342
C            0.23552621021072       -1.50418855313186        0.00190284047437
C            0.99770762736791       -2.69139710078638        0.00241758972472
C            2.35296549899727       -2.35007440896308        0.00227708920842
C            2.48043564986919       -0.96041960056058        0.00161631911646
C            3.67347723388127       -0.23590012359402        0.00083739740626
N            4.65930482427055        0.35451488228096        0.00167473125916
C            1.15292694308077       -0.39412191496575        0.00142209018321
C            0.67427712752170        0.90645002406849        0.00093991251557
C            1.50536756581485        2.04989926349447        0.00186587801045
N            2.14417065754724        3.00104347381818       -0.00201617391798
C           -0.73359422999881        1.03518987503490        0.00087467334144
C           -1.59391270415059        2.13986620115470        0.00053466658511
C           -2.92232273578277        1.67779603232655        0.00060430438216
H           -3.79698530658158        2.30136221978934        0.00025115988476
H           -1.29115188949560        3.17179541541909        0.00013465565625
H            3.17548881212459       -3.04092245772321        0.00254961785510
H            0.59293046406009       -3.68560543316513        0.00288929076035
