28
 energy: -43.469526477338 gnorm: 0.000450782656 xtb: 6.6.1 (8d0f1dd)
N           -3.74802498588629       -0.96613875743391       -0.13073217057325
C           -2.78548505552843        0.03285706907180       -0.07261002869881
C           -3.04359092636231        1.41110186312760       -0.00634725166536
C           -1.84010197141131        2.09092804151258        0.04419035277446
C           -0.78752289660766        1.15162679953957        0.00723281217280
C           -1.38489467153308       -0.15570153152815       -0.04002582236955
C           -0.60278623143253       -1.31999465619893        0.02145348190008
N           -1.17629294068351       -2.56261963464685        0.06271046583564
H           -0.56013425068932       -3.32202967503902        0.30373329016875
H           -2.09991015032730       -2.61191035201323        0.46180103767520
C            0.78729200554791       -1.15183330455806        0.00565256280690
C            1.83988408178464       -2.09117637060727        0.04118878361749
C            3.04335603314404       -1.41129304636676       -0.00894226692342
C            2.78522883653529       -0.03297299402358       -0.07352596210725
C            1.38464877965448        0.15554853445123       -0.04028328357412
C            0.60256308709437        1.31976892490878        0.02278673907191
N            1.17608897829693        2.56234135733292        0.06529433503375
H            0.56001405471580        3.32147768541644        0.30739198018116
H            2.09983645853105        2.61116214781422        0.46414063250496
N            3.74774752621542        0.96609251330777       -0.13078801267650
H            3.52136216772768        1.72444617280749       -0.75985861506486
H            4.67840160108674        0.60564169809020       -0.29340198247545
H            4.02350255189546       -1.85532519044646       -0.01050901211735
H            1.73683067457537       -3.16211676351593        0.07914304374934
H           -1.73703347380842        3.16182279616321        0.08335694674205
H           -4.02373868873666        1.85513262970723       -0.00708454598944
H           -3.52182958875229       -1.72378836653683       -0.76071434073402
H           -4.67873133294604       -0.60550968563602       -0.29264613556507
