22
 energy: -37.949978512602 gnorm: 0.000604298247 xtb: 6.6.1 (8d0f1dd)
N            5.44791350750430        0.30287199414549       -0.00007530674193
C            4.30404308253046        0.19926259644663       -0.00085154035151
C            2.90810303770395        0.07507435447595        0.00004413407205
C            2.19957938004103       -1.13558427006177        0.00030791870807
C            0.82559865176423       -0.83462706596390        0.00072364853014
C            0.70027100085571        0.61232059946218        0.00080612936875
C            1.99798133742020        1.14652462462742        0.00043627191139
H            2.26083941733607        2.18864989891079        0.00032105788529
C           -0.54774350139010        1.22780626650944        0.00115463345356
C           -1.65513569306766        0.40166832895779        0.00138724369382
C           -3.06711208707737        0.63382254613260        0.00171475822269
N           -3.76138818032261       -0.53294413466371        0.00179202422743
C           -2.86745346909720       -1.51062068954750        0.00155481891916
C           -1.53317656984940       -1.03273845081329        0.00128726199618
C           -0.29468638413213       -1.65522019319393        0.00096753405880
H           -0.20499166088209       -2.73205919141670        0.00089049463839
H           -3.19055597460748       -2.53637757887757        0.00155606974856
N           -3.70774705414681        1.80233298498913        0.00188874210688
H           -4.71356402663123        1.79786390559440        0.00215797113734
H           -3.20641538988836        2.67247833711520        0.00192787447078
H           -0.63372877478288        2.30630975586514        0.00122123173873
H            2.63734653221946       -2.11685334079377        0.00009054230540
