22
 energy: -42.717587910248 gnorm: 0.000584513488 xtb: 6.6.1 (8d0f1dd)
N           -2.28853059154876       -3.58428120159054       -0.00084939920405
C           -1.87408765012652       -2.51254252240872        0.00045139475491
C           -1.44337377266913       -1.18508162404719       -0.00016006932821
C           -2.27089366706995       -0.08128682481874        0.00001432521040
C           -1.43629257619000        1.13133790623239        0.00005884395779
C           -1.96673221760309        2.42247453226029        0.00148284352286
N           -2.44101674801169        3.46931360127209       -0.00055821677321
C           -0.11376470253111        0.75637490836993       -0.00049190283250
C           -0.06969936489992       -0.71968564928888       -0.00056242635331
N            1.00777172799794       -1.42597332868333       -0.00069056231576
C            2.16876555137444       -0.71205074515413       -0.00090704360134
C            3.46783537793570       -1.13710009256941       -0.00140415320870
C            4.26651252991360        0.08423073830329       -0.00144487073869
N            3.56232767744679        1.16288633847284       -0.00104120465801
C            2.22626222862386        0.75047257671914       -0.00078478068314
C            1.09767820197425        1.50173491533218       -0.00059800819231
H            1.10118595972205        2.58149370103237       -0.00061221465908
H            5.34149509242012        0.12115707965797       -0.00170739300420
H            3.84262641499226       -2.14134176808305       -0.00170050691853
N           -3.61306136870367       -0.04229309469248        0.00048938272632
H           -4.13660271212416       -0.90070266163716        0.00046815384194
H           -4.10163070472288        0.83613545872116        0.00052528865681
