22
 energy: -47.510548351303 gnorm: 0.000779458027 xtb: 6.6.1 (8d0f1dd)
N           -4.64548044983479       -1.79170987533385        0.00151441094393
C           -3.69284895435068       -1.14793715320725        0.00264163150897
C           -2.60553682550433       -0.28314692780899        0.00156749205650
C           -1.25115928995381       -0.51653787136953        0.00115207620174
C           -0.61866870459962        0.81113183498761        0.00074391540295
N           -1.56517612620525        1.79740562404879        0.00083152501155
C           -2.72658028043049        1.20602824541668        0.00124004963160
N           -3.89813610683976        1.83811080532281        0.00143647978990
H           -3.90451110327657        2.84436239228811        0.00121177437739
H           -4.76308944902589        1.32479988497843        0.00178326592620
C            0.75074345924997        0.92198648513773        0.00056819043847
C            1.42954455109092        2.15911435060472        0.00142200551391
N            1.99481547870339        3.15573442716900       -0.00151489379366
C            1.45821726654019       -0.31779763572011        0.00059017673569
C            2.77868507593599       -0.68629546745621        0.00000132111193
C            3.93430889737813        0.09232831158176       -0.00232906671749
N            4.91313385666349        0.69386881444502        0.00176328176581
C            2.76422673646754       -2.17041540502562        0.00053284064765
N            1.58553874685833       -2.66590878278266        0.00116735239724
C            0.69947880928121       -1.59058075483920        0.00098351352511
N           -0.57879419382563       -1.69709563322658        0.00131779572866
H            3.64588350367739       -2.78601584181072        0.00017557949563
