22
 energy: -48.301950701557 gnorm: 0.000721804681 xtb: 6.6.1 (8d0f1dd)
N            4.95064413344449        0.02723668302545        0.00024776763969
C            3.87205220836894        0.42231589989459        0.00024301593617
C            2.58171648337082        0.94916638181084        0.00020050359302
C            1.35790289095593        0.29651160583554        0.00014929946770
C            0.36258787527827        1.35040138749625        0.00018536647069
N            0.98061248558697        2.58927233820217        0.00024941320732
C            2.24999170673384        2.37715442470565        0.00030901533584
H            2.96463473808460        3.17896649393110        0.00040570981610
C           -0.98389586592136        1.08329032604229        0.00004162103811
C           -1.96530724320273        2.09879080150541       -0.00076899749590
N           -2.77710564737409        2.90645415956533        0.00098950970717
C           -1.35794130222163       -0.29653491346424       -0.00000061538697
C           -2.58175823850672       -0.94919754577778       -0.00012864227310
C           -3.87209218147562       -0.42236318964411       -0.00019458382212
N           -4.95062852204311       -0.02733276305464        0.00018935710768
C           -2.25002949569046       -2.37717730655744       -0.00022870066456
N           -0.98064225539517       -2.58928714446311       -0.00026133992715
C           -0.36262486632252       -1.35042077186304       -0.00004456289537
C            0.98386179666997       -1.08330417866498       -0.00002638796450
C            1.96528683644111       -2.09880738376644       -0.00086137730622
N            2.77713021881495       -2.90653904032207        0.00067417298788
H           -2.96466582329642       -3.17899544943674       -0.00030358497151
