25
 energy: -45.897148256620 gnorm: 0.000823388467 xtb: 6.6.1 (8d0f1dd)
N            0.03337951758870        4.05421769301075        0.01021145795809
C            0.05749047097449        2.90579101914984        0.00280099050349
C            0.06196315219936        1.50003907354033        0.00334974849132
C            1.21380761093017        0.76098881138035       -0.00005391296190
C            2.59146760345085        1.14505719213374        0.00210653390824
C            3.34297090433283        0.00442126854677        0.00459819551267
C            2.44903606955018       -1.15803586229146        0.00099319903260
C            1.16870253209329       -0.70856169359060        0.00023812806816
C           -0.08180318513809       -1.42056152053655        0.00217085168023
C           -0.07100130546135       -2.82757972194160        0.00399221448106
N           -0.00681433347894       -3.97357971634846        0.00335700932159
C           -1.23180261984787       -0.68022143908131        0.00463852445738
N           -2.53007920254853       -1.11971654744939        0.00438586435459
C           -3.27514126104822       -0.04346414952241        0.00420930637076
C           -2.48655654164373        1.19663686823372        0.00486944040966
C           -1.19195975403848        0.79080368358796        0.00509235799662
H           -2.88450550830663        2.19309716193890        0.00589927771475
N           -4.61484083235876       -0.07744812607482        0.02168724741569
H           -5.15380922346373        0.76545164192701       -0.05464494339719
H           -5.07176905525813       -0.97130773944645       -0.02159016424915
H            2.77964445984550       -2.18075907441766       -0.00127859099557
N            4.69204009020874       -0.12294833165455       -0.03891746125514
H            5.10329701146904       -1.01846492005663        0.15719583328878
H            5.26088647101126        0.69274846863607        0.10617304012241
H            2.94463238733804        2.15771408392642        0.00178749387087
