19
 energy: -39.535718516752 gnorm: 0.000669552382 xtb: 6.6.1 (8d0f1dd)
N           -4.04926914157913       -0.14819224237386       -0.00157048107660
C           -2.90743379581905       -0.04880024613676        0.00140585342351
C           -1.49895726320316        0.01584396654383       -0.00000233591576
C           -0.78976262993945        1.18151361117088       -0.00005288898760
N           -1.20280201633056        2.49701396513635        0.00016941727261
C           -0.10547120356411        3.18005321377744        0.00007425973966
N            1.07733475130573        2.44699666642164       -0.00016223080023
C            0.68025870806861        1.20660055167849       -0.00014371628473
C            1.45381576164987       -0.01080069295732       -0.00018944155228
C            2.86386534842164        0.03796261562459        0.00028149305146
N            4.00772957217116        0.09362990914401       -0.00055511025000
C            0.73560475015013       -1.17067066138677       -0.00026166378362
N            1.22564074784694       -2.47609159192174       -0.00026663424477
C            0.19945664106477       -3.25107862531919       -0.00017330680505
C           -1.06860928914630       -2.52037550103730       -0.00004005784796
C           -0.72359458344159       -1.19950254580127       -0.00016142983920
H           -2.04977922630680       -2.95549573125104        0.00004449320831
H            0.30293277251457       -4.32063639336643       -0.00021700555437
H           -0.07708521036327        4.25255872905446        0.00007784304662
