21
 energy: -38.212835051041 gnorm: 0.000559886391 xtb: 6.6.1 (8d0f1dd)
N           -0.66212476442601       -3.55118418931172        0.00096306798589
C           -0.51350163177028       -2.41270041132264       -0.00234083825134
C           -0.37898013375715       -1.01379903100655       -0.00114223366409
C            0.83418003332561       -0.37508629186065       -0.00119120141505
N            2.10961970672533       -0.85680416271759       -0.00128961241201
C            2.85915857946946        0.21982757993007       -0.00152399445276
N            2.17680738822046        1.44455050201474       -0.00168624221526
C            0.92021593280219        1.09359031220062       -0.00154528042696
C           -0.25075966705681        1.91701395650976       -0.00172709940808
C           -1.43899401021540        1.27515852025516       -0.00150827550938
C           -2.81393412855146        1.79078978394873       -0.00168393945869
C           -3.65252853531015        0.73877973801479       -0.00141061455497
C           -2.87726521765232       -0.49208050606690       -0.00114670867941
C           -1.54862207371736       -0.17589012287541       -0.00116301666143
H           -3.29947356959267       -1.48112716087300       -0.00091019142241
H           -4.72635455695852        0.76437723176135       -0.00142261178320
H           -3.06212910737003        2.83489832627590       -0.00198316458190
H           -0.14975104146343        2.99165763805040       -0.00207433074997
N            4.19413033306953        0.22116207335852       -0.00138827443127
H            4.68208118450466        1.09776902950234       -0.00247299981437
H            4.68727649812433       -0.65273081318792       -0.00194361799335
