24
 energy: -46.965005593154 gnorm: 0.000651307915 xtb: 6.6.1 (8d0f1dd)
N           -5.13188014618735       -1.65791560217206        0.01826894720022
C           -4.24945953824143       -0.92074807389497        0.01508176642223
C           -3.18207359011102       -0.02842482430255        0.00791255141003
C           -1.81932169494387       -0.30873768553708       -0.00310872937501
C           -1.17258255300152        0.98198735033977       -0.00313167911285
N           -2.11227447972169        1.99550283863175        0.00686504537364
C           -3.27249450273279        1.42744911176311        0.01338963277996
H           -4.18481370392745        1.99446429451758        0.02239508235755
C            0.20252070249524        1.09393042305052       -0.01057497199294
C            0.85482158362920        2.34549572189303       -0.01024792711554
N            1.39615863714031        3.35525852225184       -0.00863613653598
C            0.94029091966314       -0.12088654898364       -0.01811285664321
C            2.31594584027707       -0.35411091303379       -0.02221200071448
C            3.35688905201648        0.57397766116756       -0.00524842260285
N            4.27093764529209        1.27064098804857        0.02090214879461
C            2.53987356585979       -1.79309691172955       -0.02599049931588
C            1.31934809094761       -2.41698416385555       -0.02415328079569
C            0.28561949121161       -1.40999121263539       -0.01965328873175
C           -1.07443401434805       -1.51701602763456       -0.01169102287194
H           -1.58094591883205       -2.47074346435573       -0.01124236824508
H            1.14228767587729       -3.47485318117578       -0.02715895799017
N            3.77957457030327       -2.34487619731298       -0.09042356792600
H            4.57575093223391       -1.76212478680464        0.10576217757626
H            3.87481178930059       -3.32863308723537        0.09141283735504
