21
 energy: -38.202073168595 gnorm: 0.000730073618 xtb: 6.6.1 (8d0f1dd)
N            4.01808102606412        2.18379996758707        0.01121039838126
C            3.34090133371111        1.25430072508616        0.00731636783294
C            2.52516043332055        0.12356889161536        0.00469905858011
C            1.14889597802207        0.09161735924737       -0.00091846837943
C            0.75840374534555       -1.32819590892162       -0.00123580561938
C            1.99363260566442       -2.11304572600505        0.00433338404298
C            3.02919025829205       -1.25926171671046        0.00817434888904
H            4.07750116443364       -1.49564589954388        0.01298541926677
H            2.01829924490971       -3.18498547692303        0.00520614774883
N           -0.44841759852854       -1.76965585321713       -0.00512218449319
C           -1.41301705253280       -0.79900323508827       -0.00951747514842
C           -2.76975527925293       -0.92130645881627       -0.00833007507003
C           -3.26837399196295        0.46141747517634       -0.01195562035835
N           -2.31398506134614        1.35180825213128       -0.01498777959108
C           -1.13076047561347        0.64275443883915       -0.01326503693465
C            0.15110734886952        1.09858521296417       -0.00737981837686
H            0.40252618699496        2.14785435336839       -0.00775115972129
N           -4.57592381070901        0.77697515092633       -0.04907554808770
H           -5.27241366539458        0.07267764592805        0.11449295694653
H           -4.82649938652110        1.74678844806498        0.03432883707538
H           -3.37090553576620       -1.80917305600894       -0.00702738308343
