25
 energy: -41.118839573556 gnorm: 0.000921439796 xtb: 6.6.1 (8d0f1dd)
N           -5.66669481872954       -0.00297985728064        0.00687780691966
C           -4.51661446262860        0.00088792267319        0.00291352301670
C           -3.11829237478127        0.00014802631722        0.00020295389294
C           -2.30557225598301        1.14649708529488       -0.00072881484772
C           -0.97056028128834        0.72573602936752       -0.00246617000618
C           -0.97057087906771       -0.72572309727549       -0.00270643365287
C           -2.30568110059794       -1.14636891840390       -0.00111417966464
H           -2.65978789729132       -2.16130476094321       -0.00084136190355
C            0.22730867997890       -1.43858458381490       -0.00364341433742
C            1.40222581051160       -0.71872229555956       -0.00433113314989
C            2.77820242071201       -1.13607649628442       -0.00302613856802
C            3.59032836812977        0.00022583098038       -0.00184505414305
C            2.77808243768653        1.13643424135627       -0.00263876583079
C            1.40217483501442        0.71890760204415       -0.00409197526281
C            0.22723375537410        1.43867112776102       -0.00316655403912
H            0.21785592942384        2.52110669596457       -0.00259705221614
N            3.19327236871433        2.41370482440332       -0.00634311798935
H            2.52362017395646        3.16066291358608        0.01154458760415
H            4.17167399497713        2.63657776290667        0.01404538862761
H            4.66465563031466        0.00029520175789        0.00012498694693
N            3.19356314628816       -2.41329103856133       -0.00716323767056
H            4.17199718231518       -2.63603817689562        0.01315223094124
H            2.52401184831237       -3.16033965188213        0.01048144967293
H            0.21803269972182       -2.52102180102569       -0.00343640479654
H           -2.65961973276358        2.16143911921378       -0.00010374474351
