21
 energy: -43.786248601067 gnorm: 0.000520716089 xtb: 6.6.1 (8d0f1dd)
N            4.45775908256312        0.26620182768893       -0.00008417255038
C            3.35651036186368        0.59203032198424       -0.00108474501112
C            2.03690425680987        1.04257148224255       -0.00064692054564
C            0.85377894380622        0.32470404437141       -0.00035356923321
C           -0.19966322132668        1.32274884515480       -0.00021867554428
N            0.34875259657375        2.59439605232832       -0.00025583041288
C            1.62800603672721        2.45044399435445       -0.00052495346974
H            2.29876156116284        3.28946463078385       -0.00067536270770
C           -1.52675579351222        0.97884847421424       -0.00005845467927
C           -2.57267089660694        1.92603922748409        0.00064852267803
N           -3.45397487935877        2.65817844870011       -0.00091941107101
C           -1.82983486553936       -0.42108137943422       -0.00005776275978
C           -3.00490800876273       -1.13082706072250        0.00008193441953
C           -2.60783321260332       -2.52728889659853       -0.00000255485067
N           -1.32523742166697       -2.68929946416468       -0.00023215790507
C           -0.77005716168590       -1.41894656794022       -0.00015823150368
C            0.55574505359077       -1.07748773342128       -0.00040564770019
C            1.59592508766693       -2.03290588949900       -0.00199669829819
N            2.45518705269630       -2.79001321884315        0.00161091256400
H           -3.27528921075206       -3.36935571814664        0.00006980634991
H           -4.01000329014575       -0.75496698913677        0.00017784113137
