23
 energy: -47.232106314205 gnorm: 0.000759874010 xtb: 6.6.1 (8d0f1dd)
N            2.02095299040822        3.58636740464880        0.00208985012655
C            1.74197705223392        2.47125688917561        0.00068095721704
C            1.46335103195500        1.10408906737760        0.00103601677868
C            2.41154353045916        0.09268064606565        0.00134296484173
C            1.71702981861697       -1.19270385508311        0.00095500056971
C            2.38417619383077       -2.41876762461709        0.00072831555616
N            2.99948769285839       -3.38867837670813        0.00116761575229
C            0.35156616806961       -0.95329555785289        0.00059839372341
N           -0.63966250254290       -1.87300117352026        0.00010482295776
C           -1.83444365720627       -1.39384427001531       -0.00031119212321
N           -3.00451355109387       -2.14968795747667       -0.00082944892122
C           -3.97474248376804       -1.30731282683242       -0.00098703494719
C           -3.53643615496806        0.09457711093301       -0.00061519498364
C           -2.17884673428577        0.04161436076087       -0.00023408735375
C           -1.11536122919300        1.00913142909807        0.00023218214146
C           -1.41493787240646        2.38713508824044       -0.00000350043127
N           -1.70787729087857        3.49558737481313        0.00034712338584
C            0.15308810377234        0.49166204677690        0.00070849912507
H           -4.17960811100858        0.95392532030202       -0.00063928259677
H           -4.99948920772299       -1.63297406046268       -0.00136320432088
N            3.74866606942971        0.21084961406426        0.00175292116874
H            4.17104591975692        1.12328007624705        0.00189824634325
H            4.33333876648347       -0.60676956393485        0.00177085169025
