21
 energy: -42.997875390015 gnorm: 0.000491659806 xtb: 6.6.1 (8d0f1dd)
N           -3.42710382952182       -2.05394812060999        0.00167545427596
C           -2.65769021557727       -1.19997965062527       -0.00043069726466
C           -1.83069509071811       -0.08073674486454        0.00028171872823
C           -0.47337475732694        0.05960218688923        0.00015156571481
C           -0.21412048126189        1.50874929366835        0.00024474287653
N           -1.40565766141760        2.20367775778265        0.00060904623186
C           -2.35874831556246        1.32802566271034        0.00064399430796
N           -3.66446608192464        1.60045869193819        0.00088343765479
H           -3.96038563213477        2.56138383649297        0.00105447978005
H           -4.34597688389741        0.86122574986015        0.00090156885253
C            1.04356236492665        2.01719462249397        0.00007012363686
C            2.10967494312627        1.07487160296774       -0.00022188882316
N            3.39830555643816        1.26607784318767       -0.00050501663344
C            3.93458572163169       -0.02006095608078       -0.00063822902193
N            3.09369435567299       -1.00151432045039       -0.00052419951615
C            1.85876406001396       -0.38834620641263       -0.00030367513168
C            0.60071328150549       -0.90643158454779       -0.00012984969547
C            0.31571195480233       -2.28697018607939        0.00035455026345
N            0.05710243781489       -3.40370395538810       -0.00106062289668
H            4.99912883730839       -0.16115273388723       -0.00086685131957
H            1.24320140820206        3.07529021015484        0.00015183077974
