25
 energy: -46.697323539754 gnorm: 0.000905651364 xtb: 6.6.1 (8d0f1dd)
N           -4.10196551963980       -1.34299865278337       -0.01333668149647
C           -3.17743292355550       -0.65872288253426        0.00623203161634
C           -2.10969250095699        0.23383345865077        0.01856652640050
C           -2.22818575115161        1.62627817753595        0.02069665065871
C           -0.91739275244633        2.19371007731055        0.01929888915278
C            0.01126098671708        1.16753366297398        0.01467386257831
C           -0.70167320731531       -0.08961961450423        0.01502299767630
C           -0.03459164271650       -1.29246256618737        0.00900543367575
C           -0.69722237942414       -2.53773179421863        0.00933584482928
N           -1.19524525105395       -3.57051406608827        0.00919863990892
C            1.39328109992892       -1.25722593899593        0.00177367169783
C            2.33561476942150       -2.26912129817143       -0.00712066741940
C            3.63948449671686       -1.67699287931130       -0.01246709099683
C            3.51669504407866       -0.32185992926627       -0.00680700085462
C            2.10364006909292       -0.00392259265497        0.00217025304582
C            1.43514334722504        1.19846377114684        0.00842124646629
C            2.11217894505050        2.43667069810370        0.00656312355228
N            2.64986305000097        3.44939321699137        0.00459890830534
H            4.30320076618968        0.40932595014830       -0.00847526113717
H            4.55649468045126       -2.23547641692864       -0.01984160988555
H            2.13087583251282       -3.32462291517107       -0.00992638927257
H           -0.70192074846165        3.24709042338513        0.02166214097731
N           -3.37927465578530        2.33574179370816        0.07248081404382
H           -3.35866238600845        3.32451825472630       -0.10222897824720
H           -4.25150033357071        1.85103709703482       -0.05296653157570
