24
 energy: -42.180281774603 gnorm: 0.000847701346 xtb: 6.6.1 (8d0f1dd)
N           -3.92908347304846       -2.23006135441596        0.00061380440185
C           -3.13399542672179       -1.39670184609991       -0.00067406018407
C           -2.19701709047445       -0.37218653218745       -0.00015999728644
C           -0.75450797943632       -0.53516436265036       -0.00017375564528
C           -0.19823725153124        0.79549094150633       -0.00035040975012
C           -1.23984860600818        1.70871957653151       -0.00020499119263
C           -2.47522306142789        0.99562791263239        0.00000675509034
N           -3.70042399124242        1.57000140457057        0.00088542904198
H           -3.79490564059651        2.56784974597269       -0.00167535836279
H           -4.52313852173278        0.99558937385031       -0.00109353817184
H           -1.14820665962313        2.78027819935182       -0.00028165326171
C            1.21385621525692        0.98673539371591       -0.00067032505399
C            1.74846128486868        2.29196413989054       -0.00116403501306
N            2.16936916120692        3.35913794244604       -0.00057382172382
C            2.00994651367108       -0.13485028570257       -0.00064452301719
C            3.44865086206827       -0.29337072339119       -0.00081594965035
C            3.71972752564593       -1.62642489775710       -0.00071989706125
C            2.48815698149771       -2.35757657362804       -0.00050879774688
C            1.43616725800455       -1.46007405181164       -0.00043192142158
C            0.03166193082619       -1.64943362315417       -0.00023402882400
H           -0.38889758219452       -2.64438472792075       -0.00015489997691
H            2.40848416946368       -3.42979456957958       -0.00040321555075
H            4.69307590578296       -2.08069599140302       -0.00080669350580
H            4.15029153114478        0.51983702033364       -0.00099513863375
