22
 energy: -47.515291102118 gnorm: 0.000702632067 xtb: 6.6.1 (8d0f1dd)
N            4.61317737917953        1.00650755305897        0.00054798960697
C            3.65459042704411        0.37357681960816        0.00061082634145
C            2.53025148405749       -0.45022280443835        0.00026663057842
C            1.19312327167421       -0.13097653832045       -0.00012312600833
C            0.49177389269741       -1.41770433348853       -0.00041000083789
N            1.41432670618877       -2.46470828955340       -0.00024820385910
C            2.57708609121145       -1.93059136018737        0.00014256789820
H            3.47909064335608       -2.51495148092606        0.00034467851352
C           -0.86476721330576       -1.51822073166751       -0.00076502375490
C           -1.56738808084897       -2.74072203390321       -0.00158827452861
N           -2.15953236456439       -3.72129591617463        0.00009970663092
C           -1.58664893355451       -0.26501929642792       -0.00081361239081
N           -2.86422325678524       -0.05932537184303       -0.00120914689315
C           -2.96997381934539        1.35097041880178       -0.00101113727041
N           -1.83347977351016        2.00443782065658       -0.00060150588006
C           -0.88230014465575        1.03720064391731       -0.00053744988101
C            0.48718879322944        1.11505566493361       -0.00006960070253
C            1.18194971189576        2.34050177877211        0.00162511308599
N            1.75575430836130        3.33291239914739       -0.00223913452771
N           -4.17733547786349        1.89995633607524       -0.00130277125043
H           -4.26434206337376        2.90150119271242       -0.00127839261877
H           -4.98530426848815        1.30179920354684       -0.00154490515174
