22
 energy: -42.716783425729 gnorm: 0.000670630578 xtb: 6.6.1 (8d0f1dd)
N           -4.29671313135288       -1.85660274449482       -0.03780504841881
C           -3.43152876392227       -1.09982319554452        0.00235826103349
C           -2.42162084829643       -0.14362079425729        0.07322466772267
C           -1.06213497206960       -0.34209313776241        0.09690796347222
C           -0.43981849601097        0.99882839470775       -0.03007042553778
C           -1.48267163541910        1.97021529171430       -0.04855756375943
C           -2.67795303016470        1.31522680783771        0.02975400177648
N           -3.93022350896729        1.81190494050772        0.06208973973452
H           -4.08038556963949        2.79871310703942       -0.04695917402509
H           -4.72121508795209        1.19244710841035        0.03375099080410
H           -1.32694932735776        3.02895524726920       -0.09114356388681
N            0.83526067364212        1.16119202118387       -0.17849767832498
C            1.60632220450369        0.06603184354078       -0.16289622220055
C            2.97735843087994       -0.08412238544483       -0.01993318297789
C            3.95506787537881        0.89362633103742        0.14045552145367
N            4.78603260439319        1.67681710602995        0.27211226750384
C            3.20816775183238       -1.52479871888270       -0.06826429167332
N            2.11722392324289       -2.20516589961055       -0.16835354446155
C            1.07553347011686       -1.30140067418419       -0.15526600471233
C           -0.25127376866778       -1.50147888944731        0.07660577288279
H           -0.65716401328002       -2.47828838908794        0.29474824960570
H            4.17464400701152       -1.99517455686328       -0.05394437661052
