21
 energy: -38.196737372732 gnorm: 0.000672471874 xtb: 6.6.1 (8d0f1dd)
N            0.52535576754579        3.55095644912763        0.00555222713420
C            0.48069512832696        2.40442950661841       -0.00143462447190
C            0.38865866652949        1.00001223895489       -0.00621689732509
C            1.57734634984479        0.18067597509404        0.00212496734974
N            2.83385984839819        0.52528602684914        0.01282789745689
C            3.51079713048467       -0.69166549828726        0.01558276098563
N            2.78318021601837       -1.75801158955271        0.00726611822322
C            1.48085915921346       -1.28294324441740       -0.00220853382899
C            0.29397530117933       -1.93460376285298       -0.01243146784215
C           -0.88029024427481       -1.12290709255207       -0.01757121213397
C           -2.20102277185894       -1.46152719443824       -0.01904427388486
C           -3.00244168916683       -0.23686791325192       -0.01601461661791
C           -2.16198604739398        0.83672565544465       -0.01897795693560
C           -0.80896446922168        0.34125038051937       -0.01746939572264
H           -2.42881044135977        1.87527602313071       -0.02172959363782
N           -4.36204718822765       -0.25818543333316       -0.07492192095879
H           -4.85142174798749        0.60466692892234        0.09184758569142
H           -4.83803082908062       -1.10333859462691        0.19124146286681
H           -2.61596337851435       -2.45397871516792       -0.02329203822713
H            0.22248958846710       -3.01140858497812       -0.01566824218362
H            4.58427700057794       -0.70875939580248        0.02466828326259
