26
 energy: -50.427450542051 gnorm: 0.000941380952 xtb: 6.6.1 (8d0f1dd)
N            3.50857245113190        3.28547121732475        0.00988168347941
C            3.07625717134254        2.21881615856125        0.00831975371602
C            2.59395427715839        0.91378262539945        0.00809418295025
C            3.35692426893487       -0.23870948205265        0.00978765635939
C            2.46570559731156       -1.38920669083862        0.00843744186164
C            1.17766241560982       -0.94358793178296        0.00593931260825
C            1.19489937049840        0.51761720719050        0.00573488293821
C            0.05506003270393        1.25029409218526        0.00360578161838
C           -1.17607265961984        0.53414495129921        0.00138618971101
C           -2.49045970232227        0.93300164482149       -0.00061415264550
C           -3.05834599407498        2.20084907990357        0.00007494570623
N           -3.58596948325609        3.22315567827170       -0.00609772909092
C           -3.27620460932655       -0.32961332921428       -0.00229039652273
N           -2.51248441695369       -1.38574867386614       -0.00091155947730
C           -1.21877447305492       -0.93391605155041        0.00145397025124
C           -0.06388092229546       -1.66931959048737        0.00380469722817
C           -0.04356559055936       -3.07628434510353        0.00488081449765
N            0.02806285134350       -4.22143449718868        0.00349046797684
N           -4.61124145420418       -0.35998989078429       -0.00460426810878
H           -5.07562447372394       -1.25128521148505       -0.00545484822736
H           -5.14586047659102        0.49082327491705       -0.00562177460975
H            0.05669365288450        2.33029826021999        0.00354189731320
H            2.79553391415533       -2.41256417438967        0.00924948802284
N            4.69953867905339       -0.33756714465074        0.01242562059474
H            5.26213336154037        0.49500744756183        0.01275541327551
H            5.14712421861382       -1.23566224026172        0.01268834447339
