23
 energy: -41.656059054615 gnorm: 0.000417227845 xtb: 6.6.1 (8d0f1dd)
N           -3.71786092719510       -2.57630198627517       -0.00303925892966
C           -3.05667259139314       -1.63337399607965       -0.00263724186015
C           -2.28850315885701       -0.47706105901464       -0.00132174486726
C           -0.84983475927410       -0.36550976206852       -0.00108771757173
C           -0.60944112082767        1.09195413543101        0.00180114152721
N           -1.72610041173815        1.76441313212892        0.00271806671241
C           -2.75837197097456        0.82798294013164        0.00099846070539
N           -4.02532286959003        1.27007490657284        0.00269051025937
H           -4.79213325746482        0.62206381936912       -0.00048483841225
H           -4.19087676501986        2.26007373010359        0.00198192458802
C            0.71319437630520        1.62815564739203        0.00279577496214
C            1.73220914715124        0.73847015910475        0.00123268255514
N            3.09022684183791        0.99942034180263        0.00626622431815
C            3.67845369731884       -0.16084443719498        0.00797775597596
C            2.72395040973455       -1.29172219404547        0.00335595104433
C            1.49596572202372       -0.72152030535881       -0.00054177369324
C            0.16706509022056       -1.25587961604470       -0.00304366554236
H            0.00931056876562       -2.32442525454352       -0.00569974881122
H            2.99531023982146       -2.33025393437865        0.00193599920269
N            5.01034886132014       -0.32327708886113       -0.01494486445429
H            5.59075291673130        0.49440147828524        0.05335025274559
H            5.41882640111743       -1.23166249656189        0.10928757999780
H            0.86670066688645        2.69412018820537        0.00447366334798
