21
 energy: -33.421598596447 gnorm: 0.000937902416 xtb: 6.6.1 (8d0f1dd)
N            0.02101738090126        2.56050225763132       -0.00087266533991
C            0.02322535585700        1.21877124531328       -0.00069294026173
C           -1.17583766493793        0.47455947905029       -0.00036331056124
C           -2.53376556183224        0.82484400867418       -0.00016229831655
N           -3.32937738079320       -0.25624919881555        0.00012796992441
C           -2.53404359060316       -1.32423031038983        0.00014147826260
C           -1.16829942972884       -0.96241853757114       -0.00015941950798
C            0.01983969406072       -1.68847930452200       -0.00027330603405
C            1.20210409729196       -0.97232308056771       -0.00059087351425
C            2.55785820986556       -1.40150404712917       -0.00077824928894
C            3.36769509007606       -0.28415100814503       -0.00108366481141
C            2.56337311168098        0.86531291738451       -0.00110062911649
C            1.21930324351233        0.46970539992815       -0.00080076623111
H            2.93526268013530        1.87564438975298       -0.00130997089031
H            4.44276867255994       -0.28381547904663       -0.00127935130153
H            2.88213432630093       -2.42607454825483       -0.00069344699340
H            0.01442833343142       -2.76929828669271       -0.00011879042481
H           -2.94964538870954       -2.31579507846519        0.00035461796385
H           -2.97388560965005        1.80745199007287       -0.00022249708361
H            0.88623738156941        3.07036601385990       -0.00116066306962
H           -0.84726506868791        3.06515193013230       -0.00084051880392
