20
 energy: -38.467824521413 gnorm: 0.000626585628 xtb: 6.6.1 (8d0f1dd)
N            0.63825320855365        3.65667368527325       -0.00220204984147
C            0.58438979231444        2.51057783698006        0.00007330828964
C            0.48936196154360        1.10323866591996        0.00031320389937
C           -0.80425215502667        0.46090704225427       -0.00081274931371
C           -2.07864191213442        0.89284115024852        0.00048651000202
C           -2.90033452605838       -0.34915305474480       -0.00136782466226
N           -2.18215761361045       -1.43473867192932       -0.00214240587905
C           -0.87174448225759       -1.03732469512295       -0.00165202615732
N            0.14568809423038       -1.82289292719554       -0.00114957069137
C            1.35876079485560       -1.21959663014522        0.00012022325472
N            2.50184965397886       -1.83086945388220       -0.00313450353561
C            3.48873893421793       -0.84367409485611        0.00011593380577
C            2.98971040131636        0.41445816841396        0.00237399874671
C            1.55578527335382        0.26109982568610        0.00252141936712
H            3.52282847567754        1.34441894632767        0.00411257979653
H            4.51653074815515       -1.15614799725179       -0.00022930087244
N           -4.23369659477688       -0.33972950787381       -0.00143447745711
H           -4.71992876442182       -1.22030845700486       -0.00256544221929
H           -4.75066992192644        0.52129482117553       -0.00124494367048
H           -2.46584635078417        1.89447987912688        0.00290485043855
