19
 energy: -38.752821931627 gnorm: 0.000878233988 xtb: 6.6.1 (8d0f1dd)
N            3.28531570957833        2.43354198536284        0.24154374527894
C            2.56619728003721        1.54381044455760        0.11897871594644
C            1.78492525650443        0.40553377518414       -0.02824028722997
C            0.41424635268136        0.26158680878554       -0.16642108742580
C            0.17630587412522       -1.19996037666104       -0.11785608747725
N            1.35675364510255       -1.86264103360097       -0.11957442873390
C            2.31322545827713       -0.96790537993204       -0.06504517260233
N            3.61626635354898       -1.25902322869706       -0.03467596967461
H            4.29961186240034       -0.52727396462931        0.05389623124587
H            3.90672540214587       -2.21843672046328       -0.10638742780258
C           -1.10027632067837       -1.64137235657820        0.09441565024232
C           -2.12778836357889       -0.69387924296973        0.15268780630979
N           -3.42512481626620       -0.76214485061897        0.01974518286052
C           -3.86941554851375        0.52747982006406       -0.00718913077252
N           -2.94537218304124        1.45282260726793       -0.06676397963000
C           -1.78462289885244        0.77928780636823        0.02851165188458
N           -0.57814030297498        1.13098974255909       -0.22640673288724
H           -4.91944181103646        0.75102368333951       -0.02122914150756
H           -1.31408822275911       -2.68769698523783        0.24868973227618
