21
 energy: -39.006120965256 gnorm: 0.000310280350 xtb: 6.6.1 (8d0f1dd)
N           -4.42642069092560       -1.36638081283889        0.00063059467652
C           -3.51672642022105       -0.66433381767346        0.00104328908532
C           -2.41217264706968        0.18974739325990        0.00048281978006
C           -1.06977063458800       -0.19451637404033       -0.00009526235627
C           -0.29146483466158        1.02003968894145       -0.00016923775148
C           -1.21980640651670        2.13206566908884        0.00034787490542
C           -2.48090289437279        1.63323213444971        0.00074171875673
H           -3.40106778018755        2.18678368685738        0.00123144142195
H           -0.92861576456192        3.16582416302379        0.00047070467034
C            1.08266984490382        0.98402603181763       -0.00064821461412
C            1.87064595861778        2.15436481631442       -0.00044364774629
N            2.52122867841101        3.09848336936798       -0.00088055151672
C            1.70369643009860       -0.30132343374995       -0.00110206413806
C            3.01714663606390       -0.72552635416621       -0.00161846534923
C            2.94747733617230       -2.16315832251377       -0.00187197338397
N            1.72972053475062       -2.61498172443215       -0.00149987143975
C            0.89969493757401       -1.50709837533290       -0.00100905293374
C           -0.46456670200371       -1.47323738839573       -0.00049536505492
H           -1.05959325387259       -2.37335271251025       -0.00041643117795
H            3.78798327596206       -2.83317481189237       -0.00231510998161
H            3.90894499582706       -0.12794222577510       -0.00184520795225
