22
 energy: -37.137616868963 gnorm: 0.000252670768 xtb: 6.6.1 (8d0f1dd)
N            4.60497135931032        0.04177564996427       -0.05467132656784
C            3.25487206871140        0.03799115871189       -0.00466010962086
N            2.53470418693462        1.12396063243329       -0.00034808416208
C            1.21604152627862        0.70165025262048       -0.00308840882010
C            1.15605094209124       -0.77078250475314       -0.00863948923844
C            2.44868418352149       -1.18861297138542       -0.00961153850082
H            2.84128245772324       -2.18786664103965       -0.01476537432949
C           -0.09644633662986       -1.45934574924636       -0.00746073508185
C           -1.21581287608715       -0.70150824939659        0.00178911323044
N           -2.53448648845702       -1.12379866934513       -0.00095850771433
C           -3.25466317922228       -0.03783439526673        0.00337260695394
C           -2.44848322948367        1.18875934904939        0.00830914524117
C           -1.15582767613308        0.77091822738547        0.00733969454460
C            0.09667202242015        1.45948434629289        0.00616360938107
H            0.13214013495654        2.53768549983606        0.01153327387161
H           -2.84108215991574        2.18801171992983        0.01346649815064
N           -4.60479201375940       -0.04162707110741        0.05339682560599
H           -5.10834533652703        0.79629167476970       -0.17751811523118
H           -5.06531997119579       -0.92579792139628       -0.07764340849538
H           -0.13192322564596       -2.53754616212016       -0.01283557326247
H            5.10853452239142       -0.79615687850198        0.17617690313756
H            5.06552407661796        0.92594340106558        0.07631850240780
