21
 energy: -38.197486370922 gnorm: 0.000443157783 xtb: 6.6.1 (8d0f1dd)
N           -3.36392932640816       -2.46052995840862       -0.01164193925019
C           -2.70559096433763       -1.51585663357189        0.00519106609145
C           -1.92472385465814       -0.36660800178645        0.01609693833365
C           -0.46631119645070       -0.33218577405624        0.01215609498603
C           -0.09240165677898        1.07806814306373        0.01064769626803
C           -1.24074485832518        1.83074997918219        0.01749251617807
C           -2.37874601387330        0.94225740356667        0.01863891975169
N           -3.66356193727695        1.36360362353284        0.06747606032144
H           -4.40087375729553        0.69026297249699       -0.05167214108430
H           -3.87331742738904        2.33146587701602       -0.09952720529763
H           -1.29946840347359        2.90326210698863        0.02240735114996
N            1.18911507098258        1.52917190778700        0.00375066124297
C            2.08910712395745        0.61008358696625        0.00116224137838
N            3.46391510899438        0.83618412297913       -0.00681621149378
C            4.01419333875030       -0.32759838773153       -0.01126243002402
C            3.05575466160323       -1.43160842932742       -0.00663847392372
C            1.82816655079470       -0.84629056945993        0.00268062743899
C            0.47616348013427       -1.30521569455851        0.00963810675339
H            0.24110838156178       -2.36023637972455        0.01357438855092
H            3.30819734998565       -2.47498687724539       -0.01073995234254
H            5.08438368720294       -0.43816059640886       -0.01792640652876
