26
 energy: -44.039150596888 gnorm: 0.000921917955 xtb: 6.6.1 (8d0f1dd)
N           -3.64618767016537       -1.30234133018886       -0.02491081112492
C           -2.85736403205810       -0.16782360185984       -0.03030760558389
N           -3.42103226152927        1.05590802780138       -0.01329930122081
C           -2.42830964019464        1.94533360093157       -0.00798128581134
C           -1.16554014010847        1.32773639124281       -0.02816775156049
C           -1.44818484885154       -0.09299354602114       -0.02182202685525
C           -0.42908743390513       -1.04880415435024        0.04575256049782
N           -0.70366192443474       -2.39068823630661        0.15109314147681
H            0.02718162385653       -2.95100719892274        0.56285660372607
H           -1.62827522239218       -2.60196350840621        0.49675840640124
C            0.87818592185754       -0.55227709334309       -0.01194535377257
C            2.15538678781310       -1.15586036320023       -0.03163177564177
N            3.15195940757844       -0.24533978901496       -0.01440335863907
C            2.57375315075012        0.96009554955232       -0.00566339259863
N            3.30840328773973        2.09190937018425       -0.04027599083247
H            4.29571378767654        2.00683990974375        0.12863915740376
H            2.86141947765084        2.96769297308347        0.16432941047451
C            1.14588260834889        0.86898335396088       -0.02274686062749
C            0.13877416598999        1.80880402438616       -0.01951255865874
H            0.34048142822240        2.87109327338504       -0.01413625367997
N            2.45467918064846       -2.48990730206126       -0.03822246216336
H            3.43470308586301       -2.67201357953345       -0.19918050318476
H            1.82837259985981       -3.08785884166068       -0.55515782178132
H           -2.64398810440252        2.99852147459331        0.00210569419359
H           -3.35392539405786       -2.02821041661538       -0.66586703202127
H           -4.62399045555555       -1.06466864247991       -0.13024201021556
