17
 energy: -30.501604797688 gnorm: 0.000565156167 xtb: 6.6.1 (8d0f1dd)
C           -3.30328517419114       -0.01138158460990        0.00258691887304
C           -2.41022779389151       -1.14520015253842        0.00206162222614
C           -1.11097602236963       -0.68399245797665        0.00147972130499
C           -1.15857802451161        0.77004868084289        0.00157666890798
C           -2.58010057011986        1.13057885811954        0.00231302280927
H           -2.94482773490946        2.14063237759270        0.00259742784254
C           -0.02690996510468        1.51653490897423        0.00099074213460
C            1.18245018969249        0.76041198990323        0.00033907988352
N            2.43760389383986        1.11790705650965       -0.00017989681947
C            3.12902986529807       -0.09056183863114       -0.00066413412946
N            2.41953628431317       -1.17081676052656       -0.00040216790167
C            1.11603640247164       -0.72185189514106        0.00027689742445
N            0.02850108384932       -1.41575482997156        0.00086861853915
H            4.20301238515045       -0.09296519253043       -0.00120424357162
H           -0.00788012179335        2.59675856339577        0.00093967318235
H           -2.71444607755911       -2.17572837000828        0.00208753586811
H           -4.37426566896464       -0.09468803840403        0.00311462492608
