24
 energy: -50.979032861944 gnorm: 0.000250084798 xtb: 6.6.1 (8d0f1dd)
N           -4.14221138787106       -1.96243984383539        0.00007659741121
C           -3.27432545787493       -1.20808821094258        0.00025329135313
C           -2.31731836989552       -0.19966425325031        0.00026820778150
C           -0.94953217522174       -0.22689623650405        0.00020560302221
C           -0.52969295167266        1.19348968327183        0.00023416044900
N           -1.61691219759776        2.01991234299707        0.00034178554569
C           -2.67248225251512        1.25455128576359        0.00036816295772
N           -3.92600959670863        1.69201016269634        0.00046128692248
H           -4.09486654566586        2.68433124890785        0.00052591934993
H           -4.69713328687124        1.04515666379434        0.00047629160231
C            0.78975565793846        1.55750516700594        0.00016528071112
C            1.21964366042604        2.89864626932874        0.00023792240565
N            1.58327478831935        3.98577924485905        0.00041647566991
C            1.74357334695776        0.48713118828450        0.00008052743137
N            3.03843314053490        0.53889447164924       -0.00002369310111
C            3.42363776135761       -0.81558895367983       -0.00008137569142
N            2.44257127041716       -1.69354116570469       -0.00004030479323
C            1.31902597938048       -0.94211123241512        0.00005965910042
C           -0.00495133722652       -1.29950684641516        0.00007489011058
C           -0.43926737418758       -2.63889177829998        0.00001627662388
N           -0.81128318940088       -3.72367087898888       -0.00026054950791
N            4.71339974699756       -1.11622179960253       -0.00019564190944
H            4.99698440676940       -2.08092171495155       -0.00024955888111
H            5.38739008781079       -0.37002186276842       -0.00024365516392
