24
 energy: -46.169374060550 gnorm: 0.000265569326 xtb: 6.6.1 (8d0f1dd)
N           -0.07768120050298       -4.11507645293520        0.00159521758004
C           -0.02461526727691       -2.96686887189202        0.00123009202464
C            0.02239841540312       -1.56458220610707        0.00232706071285
C            1.20147456390022       -0.85938054497118        0.00391938140210
C            2.56717806942080       -1.21341244813116        0.00518576277070
C            3.26166291469737       -0.02534194045073        0.00641516219185
N            2.40842370238165        1.09769295805047        0.00598583119684
C            1.20356750657970        0.62742328995146        0.00455426915247
C           -0.02125432398260        1.38360073992720        0.00356355689652
C            0.01576073765904        2.79127362706560        0.00390588194341
N            0.05538985471517        3.93742226605802        0.00516169021834
C           -1.18833183335184        0.67198095856205        0.00208614975741
N           -2.46798950066959        1.15697318271891        0.00092109634042
C           -3.25200001088691        0.10916843574215       -0.00034678041410
C           -2.50569963172942       -1.16603360613679       -0.00010589388915
C           -1.19974825034955       -0.80953342103727        0.00143291956093
H           -2.94218106422638       -2.14584429368275       -0.00099474194194
N           -4.58337664058931        0.18970105771235       -0.00175629061052
H           -5.15534197851544       -0.63555031303860       -0.00268112644915
H           -5.01013987816514        1.10041275273862       -0.00182283013947
N            4.57975053465764        0.21384279037180        0.00782135761673
H            4.88902213251828        1.16978631513947        0.00870589512506
H            5.24463929390985       -0.53784972596404        0.00842705362212
H            2.97277680730322       -2.20419775509142        0.00517549833197
