21
 energy: -38.203477993927 gnorm: 0.000856777890 xtb: 6.6.1 (8d0f1dd)
N           -3.28699243890412       -2.44255833902752       -0.00876622871828
C           -2.56374658198426       -1.54742846660945        0.00457853371849
C           -1.77052965421425       -0.40855081690280        0.01185102762972
C           -0.40073429355942       -0.24685517972789        0.00972934327253
C           -0.16520600926777        1.19381588281476        0.00825034292674
N           -1.36727308540678        1.87398135450882        0.00897135960986
C           -2.30523237567043        0.97315488278606        0.01236752788943
N           -3.62065639412924        1.24319473574495        0.04505316967548
H           -3.91452695100250        2.20069993273904       -0.02980655617909
H           -4.29204985240466        0.50424481601010       -0.06546010515186
C            1.10458576007116        1.68326370305968        0.00146368102758
C            2.13715676603398        0.70606757538889       -0.00136224657724
C            3.50037591984941        0.77364034658280       -0.00638546156952
C            4.04294092865493       -0.58044639489438       -0.00618128296093
C            3.03753307688499       -1.47369378621212       -0.00062973977743
C            1.77832010643673       -0.71934996928349        0.00251480631035
N            0.58221469747712       -1.19149851530267        0.00740053331043
H            3.09144565939036       -2.54436113444792        0.00120840795254
H            5.09625543960980       -0.79330439182081       -0.00980833280695
H            4.10224199502354        1.66491318395018       -0.00993922805876
H            1.32081757761144        2.74010830674375       -0.00167802702306
