23
 energy: -41.648919025160 gnorm: 0.000540429389 xtb: 6.6.1 (8d0f1dd)
N            3.76575164659817        2.45651568246896        0.00080668096519
C            3.03423185580429        1.56699382978121       -0.00110510269856
C            2.20242215314041        0.45625170871679       -0.00159929495904
C            0.83790875797853        0.35545285873299       -0.00018446662216
C            0.55333714232595       -1.11197429940838       -0.00071506390322
N            1.72694531475148       -1.82262554024427       -0.00188074717440
C            2.69226525192600       -0.95289923276096       -0.00286131951078
N            3.99154878424075       -1.26241122760324       -0.00362111263099
H            4.25972629954906       -2.23079037731569       -0.00606125240743
H            4.69132498592407       -0.54124062467792       -0.00689882393957
N           -0.62554755247461       -1.62518701432025        0.00059625308639
C           -1.65178408782523       -0.72705918994302        0.00115501295211
C           -2.98455152479919       -0.98706657383383        0.00361161541541
C           -3.69981982704315        0.29723869771758        0.00981322235026
C           -2.79709632567482        1.31638373139907        0.00619446627804
C           -1.48094270247391        0.73979924447805        0.00058952479709
C           -0.23394116664728        1.28225305104338        0.00096200018602
H           -0.04734468294571        2.34746304898012        0.00056418002223
H           -3.00605425835949        2.36856519881759        0.00681677073895
N           -5.05731018754336        0.36019160063939       -0.03491574871456
H           -5.50059726496632        1.24697589539158        0.13187686551385
H           -5.58369410111664       -0.46564972956574        0.19058454559001
H           -3.45861376626894       -1.95039887899345        0.00054008726514
