21
 energy: -38.998947981054 gnorm: 0.000766065465 xtb: 6.6.1 (8d0f1dd)
N           -3.91462207235876       -1.25694238250923       -0.00099833420755
C           -3.10323824961495       -0.44311692673436        0.00249164774928
C           -2.12917937850931        0.55645061915928        0.00132966149538
C           -0.70048044610991        0.34132426951549        0.00083327854323
C           -0.08941083740491        1.64709661521743        0.00118028142451
C           -1.11963421302864        2.60048783240775        0.00171032662179
C           -2.35178700914529        1.92987089090721        0.00168729236245
H           -3.31946395367184        2.39646937118118        0.00220037825625
H           -0.98121202426446        3.66521296868299        0.00216728216300
N            1.23349482423966        1.86363483437594        0.00106782559994
C            1.97798515777427        0.79292518154723        0.00062940263233
C            3.42268053349154        0.70758568349257        0.00038084037481
C            3.76616273066319       -0.61652786589455       -0.00017352992029
C            2.58977552238866       -1.41449071503013       -0.00039958318544
C            1.48323565787247       -0.56900193767450        0.00022844354445
C            0.08716528736327       -0.79664040592818        0.00025906774941
C           -0.43006483363055       -2.11196716262096       -0.00203181630018
N           -0.80519708616855       -3.19474393229219        0.00166643346164
H            2.56314312192470       -2.49002920870414       -0.00092025780346
H            4.76460003707049       -1.01258205492889       -0.00049727370566
H            4.07947240201890        1.55597481723000        0.00062374644412
