24
 energy: -42.179058926908 gnorm: 0.000721713054 xtb: 6.6.1 (8d0f1dd)
N           -3.30963510323575       -2.16807106347784        0.01579696833313
C           -2.64717112450609       -1.22736055399600       -0.00805741561028
C           -1.91975123741012       -0.04121200124449       -0.02351501069024
C           -0.48229289789406        0.10640528734563       -0.01890807411252
C           -0.20481354233776        1.52814278595022       -0.01876148288493
C           -1.41541381321616        2.19616918711594       -0.02468644540040
C           -2.47626518443928        1.23731540635746       -0.02635324037835
N           -3.79739730822315        1.54231675212201       -0.08758606612872
H           -4.46095806919739        0.80030836907869        0.05990828708585
H           -4.09232558741438        2.47752226357593        0.13200027558991
H           -1.55778281300966        3.26192943103190       -0.02792648382391
C            1.12562833752126        2.01362883000933       -0.01168529292242
C            2.13596491901566        1.09859578687165       -0.00355599601435
C            3.57900562263012        1.24941889308559        0.00671242831434
C            4.13416106824626        0.00878009833613        0.01448301361856
C            3.09195613911448       -0.97344715688223        0.00932446345959
C            1.87561905419646       -0.32068105254086       -0.00183346021293
C            0.53531641640299       -0.81685874941201       -0.01069914527897
C            0.31102199730054       -2.20896934111129       -0.00986083635536
N            0.17471443081083       -3.34792167760216       -0.00890952489445
H            3.24076072942910       -2.03851915464877        0.01349288529906
H            5.18270493563534       -0.22394948913357        0.02337098124257
H            4.09213190459779        2.19279149113094        0.00774139185392
H            1.31366930278297        3.07785078993771       -0.01223015568908
