26
 energy: -50.415139676654 gnorm: 0.000797426480 xtb: 6.6.1 (8d0f1dd)
N           -3.69668482637777       -3.21115389920023        0.00010353255059
C           -3.09206758872372       -2.23379609413795        0.00467979494958
C           -2.42368592304757       -1.00898219642285        0.00227801676239
C           -3.03261231721454        0.23020650946247        0.00072119284914
C           -1.98920487980664        1.27096641949142        0.00054330976672
C           -2.27779705540016        2.63521744783672        0.00008570593716
N           -2.56032557603409        3.74980386025103       -0.00184393896307
C           -0.76067503686180        0.65681234439417        0.00146341979258
C           -0.99260413404481       -0.80432121177658        0.00233283031161
N           -0.06037145235737       -1.69636870564947        0.00355105600937
C            1.21080038333484       -1.21368324374042        0.00383525052474
C            2.37423074762830       -1.92913289875390        0.00487979027569
C            3.48939689111706       -0.99563598577427        0.00479778447165
C            2.99537388604585        0.29722097502671        0.00356335028940
C            3.74752689957752        1.46748919739551        0.00253769196821
N            4.39268297334575        2.42069153815356        0.00416871594792
C            1.54620520300627        0.21431967785081        0.00302957204291
C            0.56824138398209        1.15709779770199        0.00188982647756
H            0.76651247097544        2.21950552787037        0.00135281028270
N            4.77920520447674       -1.37962690261724        0.00560037713443
H            5.50770834073464       -0.68720744313618        0.00556285145023
H            5.02333539883661       -2.35305910570216        0.00647461551636
H            2.47026398691906       -2.99860410942394        0.00560694958914
N           -4.34318028377529        0.51495238310749        0.00004089990329
H           -4.65986929328169        1.46922223976687       -0.00084123827051
H           -5.01609889395471       -0.23239297377392        0.00030947183024
