23
 energy: -42.446001006995 gnorm: 0.000520037976 xtb: 6.6.1 (8d0f1dd)
N           -4.44448104537188       -2.15183450665725       -0.02136696820282
C           -3.66509543775567       -1.30664073073095       -0.01521154584226
C           -2.72358410068067       -0.28142913645614       -0.00827523567582
C           -1.34011602294111       -0.37702940448952        0.00402178339256
C           -0.87030912150088        0.99182486512887        0.00262793066746
N           -1.93756060329977        1.87036714074746       -0.00928838941586
C           -3.00951511033764        1.14963057359272       -0.01576905724150
H           -3.99048325488451        1.58782671979288       -0.02596975991148
C            0.47527670261520        1.28192637180659        0.00973499262711
C            0.97859637409728        2.59914574443761        0.00494674716340
N            1.43419452805872        3.65121406491114       -0.00106516825441
C            1.37434926198378        0.17614781871707        0.01863661043163
C            2.75183451338339        0.13535300989222        0.02329455128700
C            3.17400722368741       -1.24534770713800        0.02417173446451
C            2.06130630520651       -2.04421544282218        0.02507802686110
C            0.89074920382862       -1.19237871584184        0.02184412155916
C           -0.43740828783148       -1.47884848722410        0.01484699140484
H           -0.81759918313466       -2.48973179496445        0.01741943538466
H            2.03558256597446       -3.11652373747408        0.02949142392456
N            4.48607254240443       -1.62278888785286        0.09589479628928
H            4.69809075154807       -2.58294208230735       -0.11762791757100
H            5.17650384770880       -0.94993054220675       -0.19266411421787
H            3.41617785774163        0.98167188543888        0.02609247627573
