22
 energy: -42.717386402190 gnorm: 0.000568364571 xtb: 6.6.1 (8d0f1dd)
N           -0.42289761512896       -4.06457638498165        0.00138409893115
C           -0.43134854354350       -2.91750866203163       -0.00216859687615
C           -0.41514387443907       -1.50795211541930       -0.00048657764389
C           -1.54024130223561       -0.74499200211332       -0.00039372698326
C           -2.95758469415056       -1.03091362245903       -0.00050887887504
C           -3.57170323871956        0.17448269358744       -0.00057790545570
N           -2.67299493940637        1.24259755724636       -0.00042836576748
C           -1.48012392196762        0.73107076929556       -0.00043742434036
C           -0.22158121192849        1.42596290000415       -0.00031525385244
C           -0.18230053568184        2.83467983686411        0.00050288150796
N           -0.15034491546188        3.98037735931283       -0.00209622001543
C            0.91155501309063        0.65727484717541       -0.00029869971154
N            2.21888837337315        1.07361317630448       -0.00016343718836
C            2.95010756910959       -0.00753068315568       -0.00009938971944
C            2.13735992774252       -1.24164301844629       -0.00019385631629
C            0.85169563372328       -0.81123928847423       -0.00026881984364
H            2.51721229401168       -2.24556220589571       -0.00013415825725
N            4.28759262892905       -0.00027467233817       -0.00021265463110
H            4.81429857378350       -0.85455116638820        0.00081368782456
H            4.76309945272838        0.88536909112146        0.00022581266754
H           -4.62240412557171        0.39566923894407       -0.00064238870335
H           -3.39982413545662       -2.00689374595261       -0.00045192455047
