18
 energy: -39.837184276119 gnorm: 0.000618638629 xtb: 6.6.1 (8d0f1dd)
N           -4.72531332130341       -1.29455077349141        0.00063128375607
C           -3.81503652480923       -0.59755744598727       -0.00148766459638
C           -2.72375659928043        0.28182577999406        0.00023353384298
C           -1.37150301832912       -0.10469456256038       -0.00123401267544
C           -0.61743244373481        1.25222284562553        0.00081220214494
N           -1.50673672613849        2.19847352619427        0.00268346490919
C           -2.73607921798352        1.67884384673532        0.00207782107061
H           -3.59650243519236        2.32003293329005        0.00310777938293
N            0.65676978182370        1.15641563403925        0.00235596875868
C            1.37158628983902        0.10466868106194        0.00236856623216
C            2.72382206333609       -0.28187193244748        0.00032594300912
C            3.81508555966843        0.59748177749391        0.00003516840067
N            4.72536182419282        1.29455679026167        0.00273410766566
C            2.73613469734782       -1.67889338501111       -0.00103260441816
N            1.50679249345401       -2.19852228662674       -0.00145505494555
C            0.61750114874360       -1.25226344497964        0.00037579501568
N           -0.65669064530989       -1.15644526263530       -0.00131250860087
H            3.59655493157590       -2.32008329985636       -0.00234844405231
