20
 energy: -39.266916853907 gnorm: 0.000771318580 xtb: 6.6.1 (8d0f1dd)
N           -4.00392976932484       -1.15412612606538        0.00092192603682
C           -3.12114863507439       -0.41834391279001       -0.00086289023494
C           -2.07709018006753        0.50393754879617       -0.00015311325853
C           -0.71146861515781        0.29070196896162       -0.00003348444876
C           -0.10832694370605        1.62435212576788        0.00006325844324
N           -1.10324612592681        2.58583735614254        0.00000566717699
C           -2.22941102265093        1.96237144446665       -0.00012809679184
H           -3.17061345329614        2.48092143928951       -0.00033148592152
N            1.16431639146390        1.86638329824939        0.00027901245299
C            1.95957337840070        0.78246930302353        0.00031920486111
C            3.34754348317980        0.73657735945536        0.00036573465598
C            3.75801296443699       -0.63543288706626        0.00044036769496
C            2.66138512610795       -1.44037868685314        0.00041027406051
C            1.48352869303407       -0.58803207471841        0.00021518212803
C            0.13912653050818       -0.85748925032582        0.00007552949161
C           -0.38324986903860       -2.17112075470214        0.00132406304962
N           -0.78813968688002       -3.24295332590276       -0.00159753923117
H            2.63232431802359       -2.51423370695863        0.00048031855664
H            4.78254017438949       -0.95765171719771        0.00052250744613
H            4.00268745857845        1.58768850422758        0.00031740843214
