21
 energy: -38.211972616251 gnorm: 0.000319781097 xtb: 6.6.1 (8d0f1dd)
N            3.33523808986247        2.43984377339086        0.00066565243547
C            2.61881758576166        1.53921342237559       -0.00052912479743
C            1.81371600486183        0.40736757752157       -0.00060063904324
C            0.44466242524508        0.27772612850822       -0.00027383034463
C            0.18598231004373       -1.16229419970881       -0.00005408169080
N            1.37625426847907       -1.86565490488732       -0.00001493877577
C            2.33092962861524       -0.98650666475153       -0.00043665546084
N            3.64065340432746       -1.27512759942707       -0.00317842225562
H            4.32815442110610       -0.54357264033017        0.00583169714796
H            3.92606758574427       -2.23760328744883        0.00310317061144
C           -1.07803039496512       -1.65542596947485        0.00037083643740
C           -2.14341551144933       -0.70722763862476        0.00057859479980
C           -3.50490487238038       -0.81807890667512        0.00094627632495
C           -4.00972149865390        0.54839882455634        0.00100408923474
N           -3.07812323951360        1.43842083071713        0.00070024547467
C           -1.87230319648606        0.73166337243231        0.00038447260634
C           -0.61664411238760        1.23281151842437       -0.00006755778064
H           -0.41061161887729        2.29216612599388       -0.00024840773159
H           -5.04877223587906        0.82768477963574        0.00129947220118
H           -4.10701357128220       -1.70644132559255        0.00114760036134
H           -1.27816236227235       -2.71482100563500        0.00055877334527
