20
 energy: -38.467942321130 gnorm: 0.000646402970 xtb: 6.6.1 (8d0f1dd)
N            3.23518291909602        2.52232104388329        0.00304313949377
C            2.57261648341973        1.58322152180103       -0.00057988649246
C            1.85381889058045        0.38730831318727        0.00017495985732
C            0.40955035248606        0.23200735171834        0.00011050149892
N           -0.48159740140128        1.15575504528792        0.00002774698976
C           -1.77001745900889        0.70796875883693       -0.00041765515083
N           -2.85278948752152        1.42481631019963       -0.00053280787467
C           -3.87827018554536        0.47850757224989       -0.00105506871244
N           -3.53054601860241       -0.76324481179472       -0.00133616938789
C           -2.14393678621663       -0.72753905081243       -0.00093982360827
C           -1.21103306103216       -1.70320908422788       -0.00099656234936
C            0.14119872568463       -1.23478994103092       -0.00039935794374
C            1.33429192290187       -1.87389043449186       -0.00022996775611
C            2.41086235116587       -0.87396718608954        0.00030721957956
N            3.71245356787684       -1.19918974862925        0.00030354346005
H            4.40617068126302       -0.47056725398241        0.00104854457439
H            4.00683529089368       -2.15937473271444        0.00095143937831
H            1.50904003317309       -2.93566026964899       -0.00055586663879
H           -1.44482829990986       -2.75762671833417       -0.00145270501840
H           -4.90260898470323        0.80150321269234       -0.00124327589914
