24
 energy: -36.586182828632 gnorm: 0.000336129037 xtb: 6.6.1 (8d0f1dd)
N           -2.99697300518897       -2.02334695880233        0.06635011041175
C           -2.54942519566692       -0.73649106233620        0.02294585418764
C           -3.35401223283509        0.41630733222461        0.04453153726758
C           -2.54018044226086        1.53482966953167        0.04011830937387
C           -1.18759523781859        1.12004586458845        0.01799887402258
C           -1.18564210283233       -0.32320197063448        0.01268607721167
C            0.00002242164777       -1.03856724289812       -0.00067590678230
C            1.18567124756368       -0.32317310969029       -0.01387605581648
C            2.54946343895918       -0.73643023900370       -0.02422914697930
C            3.35402544603580        0.41639056425535       -0.04555262124696
C            2.54016929698430        1.53489409606066       -0.04088554613927
C            1.18759299855794        1.12007589107200       -0.01886381591075
C           -0.00000890816601        1.83433895506842       -0.00035226443623
H           -0.00002066377713        2.91594773342595       -0.00022814490211
H            2.87643670624623        2.55626437311875       -0.04987902518149
H            4.42946530646701        0.41331911558250       -0.05963835273782
N            2.99703908136359       -2.02326608737307       -0.06792349577651
H            3.96673037817460       -2.18644394026535        0.14582868532514
H            2.35546344197512       -2.75193552264154        0.19515694141868
H            0.00003413033722       -2.12326993913659       -0.00079965849331
H           -2.87647006160542        2.55619055132030        0.04934416709525
H           -4.42945203658530        0.41320924104500        0.05861708886331
H           -2.35538250803914       -2.75194152233522       -0.19690247443567
H           -3.96666062733685       -2.18649603467671       -0.14744134233922
