25
 energy: -41.115613938829 gnorm: 0.000415516497 xtb: 6.6.1 (8d0f1dd)
N            5.25175656286215        0.08582227111987        0.02779191135081
C            4.10600818218216        0.19655108894094        0.03268591312393
C            2.71375526338679        0.27355472557441        0.02895338693069
C            1.92585162973475        1.43215812630936        0.02645045462354
C            0.57465093348422        1.05514383169518        0.00938253062316
C            0.51899101344141       -0.39100125596174        0.00294471177396
C            1.85937326537927       -0.86155561810597        0.01072965310021
N            2.27564225792677       -2.14818472985343        0.04428391158055
H            3.25517404643596       -2.34111509122559       -0.08037585854287
H            1.62090388192511       -2.88558390312797       -0.14547028388218
C           -0.69316545808848       -1.06263991484601       -0.00561775263461
C           -1.85058231231777       -0.30396289999592       -0.01155267516717
C           -3.22700619439567       -0.66573848570079       -0.01537355005446
C           -3.99069908335075        0.52118945432573       -0.02924824139106
C           -3.14038333765318        1.60605157231485       -0.02728217840446
C           -1.79915374582414        1.14182922910819       -0.01432399301349
C           -0.59386292563307        1.81327780145037       -0.00181050061065
H           -0.55275801407100        2.89344848169877        0.00007636130441
H           -3.43685439270929        2.63916075305577       -0.03266824034236
H           -5.06524837765215        0.55494514497352       -0.03708683368932
N           -3.72472274540958       -1.92590503520442       -0.04971721042367
H           -3.11194477790025       -2.69794647898300        0.14469077445356
H           -4.70695341619510       -2.06267889111575        0.11423012177806
H           -0.73136560714972       -2.14597546724218       -0.00746483317846
H            2.30553446469131        2.43747249199581        0.03489881659167
