26
 energy: -44.039150600085 gnorm: 0.000920215420 xtb: 6.6.1 (8d0f1dd)
N           -2.45498694469868       -2.48971734064053       -0.03665020745964
C           -2.15550047722433       -1.15571841050574       -0.02925946879321
N           -3.15193354558862       -0.24506781432052       -0.01085414645599
C           -2.57354904075768        0.96027823461798       -0.00155520281131
N           -3.30805427757275        2.09222208204939       -0.03496907514711
H           -4.29528767599318        2.00717331206860        0.13440560596335
H           -2.86083620163983        2.96779474727290        0.17002684068174
C           -1.14570072751291        0.86897360319893       -0.01945743097228
C           -0.87820264373179       -0.55233225655462       -0.00981252140757
C            0.42902936217552       -1.04908807202281        0.04684294553259
N            0.70346575578728       -2.39108688727072        0.15107938751287
H            1.62823065274631       -2.60274227930614        0.49610519544769
H           -0.02724032857394       -2.95159418631588        0.56282853687369
C            1.44822868513551       -0.09337563366892       -0.02058531019794
C            2.85739228429084       -0.16840232266280       -0.02986677086670
N            3.42124563499309        1.05523608547521       -0.01227907587200
C            2.42865368789532        1.94480062417519       -0.00580660846376
C            1.16578501869715        1.32739891226146       -0.02576897673441
C           -0.13845548303878        1.80864726780531       -0.01608416844685
H           -0.34000727240515        2.87096134747371       -0.00983885093442
H            2.64448857328245        2.99795028744425        0.00491906244490
N            3.64605502254905       -1.30303698499641       -0.02569354496062
H            3.35335119745846       -2.02840607821132       -0.66701231630948
H            4.62383632399006       -1.06543037109517       -0.13136849218723
H           -1.82903489449099       -3.08738765080554       -0.55433912647619
H           -3.43512072317203       -2.67156975246595       -0.19722430246023
