22
 energy: -42.710622070576 gnorm: 0.000825524129 xtb: 6.6.1 (8d0f1dd)
N           -3.87727239486396       -2.12627207762610        0.00683689169523
C           -3.02547401375827       -1.35465198240981       -0.00747942436384
C           -2.06661509663173       -0.34345509644288       -0.01545981165246
C           -0.68858702438636       -0.45248131317239       -0.01343135051410
N            0.04995545652492       -1.58537267660413       -0.00919634905374
C            1.32542478900703       -1.41018163407337       -0.00183960390459
N            2.27623944789430       -2.42850761711402        0.00373908616903
C            3.42227852960851       -1.84633062711571        0.00784090523203
C            3.33823349968543       -0.38130408723606        0.00572421541055
C            2.00939105110929       -0.10098948971219        0.00117413717067
C            1.21222948203315        1.09514019146076       -0.00328913104613
C            1.81989376848918        2.36463881444490        0.00287866107379
N            2.32627802827018        3.39485033566003        0.00918988082944
C           -0.14778506460137        0.90812771606400       -0.01241644477930
C           -1.25367019982020        1.81713856047658       -0.01395579709603
C           -2.41039143263316        1.08797150028325       -0.01540251126312
N           -3.69263214682533        1.51408041401227       -0.05369075144487
H           -3.89367877459274        2.49180080099285        0.05577846152069
H           -4.43890741809053        0.85228500555842        0.07089002738782
H           -1.16690140875469        2.88644946269282       -0.01467243373766
H            4.17243227498488        0.29429826875529        0.00728904638859
H            4.33715121985147       -2.41162909619453        0.01290289487796
