19
 energy: -38.752642275925 gnorm: 0.000954338663 xtb: 6.6.1 (8d0f1dd)
N            0.73761133226911        3.53862942512621        0.41657965133455
C            0.65942349403985        2.41303937510462        0.21539917252848
C            0.49302404185519        1.04229514872043       -0.06847327743460
C            1.55654929421609        0.20726485477051       -0.31147941336238
N            2.89037117859033        0.41024537809631       -0.33193129749397
C            3.40767208202601       -0.75269303026673       -0.03781404522982
N            2.51999532530055       -1.75581531562752        0.22772368210242
C            1.34206511259923       -1.25033921983055       -0.02991719352259
N            0.13884322751659       -1.78353268652551        0.07878439944264
C           -0.90732205953253       -1.04014069274342        0.11906426063254
N           -2.20087857947499       -1.41692862123871        0.14007416925942
C           -2.91344353467532       -0.31589554208818        0.01930963719607
C           -2.08043116929965        0.88562213196008       -0.12910399110540
C           -0.80453997182842        0.45885949975554        0.02319517588541
H           -2.43523278195601        1.87112487504202       -0.36227586625254
N           -4.24434910053450       -0.31423358141489       -0.00207682385104
H           -4.76244016080004        0.54073123766047       -0.10087805051705
H           -4.72910269678999       -1.18904723882065        0.10870426442152
H            4.46560697857831       -0.92394937337999        0.01897354106622
