25
 energy: -45.903660892864 gnorm: 0.000434500415 xtb: 6.6.1 (8d0f1dd)
N           -4.34725656521780       -2.19565145663932        0.01877238002178
C           -3.58334705716429       -1.33486992543174       -0.00035950542411
C           -2.70885459481502       -0.25268895267371       -0.01058421136918
C           -1.33281915179912       -0.26334424894674       -0.00742099786435
C           -0.89061984978839        1.13404780452614       -0.00571839490519
C           -2.06728484136985        1.96212483341075       -0.00579092883634
C           -3.16185112970793        1.15675387856227       -0.00930484527710
N           -4.47994825638493        1.47914157738129       -0.06395303271833
H           -4.74946511182627        2.43370580007933        0.09624105304761
H           -5.16148871044638        0.76359674857764        0.12329217131387
H           -2.05927318360214        3.03446764726769       -0.00516180976492
C            0.43210907759624        1.44441627237285       -0.00002863269357
C            1.35621193358683        0.36301614398380        0.00151131977541
C            2.72904759280997        0.30661710123824        0.00364934367754
C            3.68144627570500        1.31548292899559        0.00567316121728
N            4.51315826042175        2.11180078690493        0.00857479890848
C            3.05282066573591       -1.14754098698426        0.00319668514157
N            1.98907644356470       -1.89155002364312        0.00112978105630
C            0.90730349600129       -1.03459319374907       -0.00062204751214
C           -0.41372123597093       -1.34715485308626       -0.00451247052682
H           -0.76186104999514       -2.36774701346056       -0.00615485173381
N            4.31048987527028       -1.60867077476820        0.00597427934057
H            5.08985714198985       -0.97537714165670        0.00296385490586
H            4.46305144812380       -2.60127577619002        0.00257496417190
H            0.79102432858254        2.46302144562920        0.00229207374769
