21
 energy: -33.397598917956 gnorm: 0.000379664256 xtb: 6.6.1 (8d0f1dd)
N            4.25944978825914        0.03952996827419        0.10444363099232
C            2.88957606429960        0.07288146484847        0.03101755435942
C            2.07109762058046        1.16521359176434        0.03056868011128
C            0.70750637037063        0.69714761870031        0.02540893085818
C            0.75977306830489       -0.77416151725325        0.02472807172533
C            2.07903191228898       -1.13272656495809        0.03050335217113
H            2.48223494538358       -2.13111431477425        0.03453163682486
C           -0.45302757161703       -1.51117128905825        0.01531646581132
C           -1.59405062288855       -0.77122726904467        0.00376753893679
C           -3.00336694817763       -1.12377023578132       -0.01043174480434
C           -3.72288177829729        0.02530027952550       -0.02173769340788
C           -2.82807200314604        1.15168924321942       -0.01487669767807
C           -1.53475719515123        0.68142366579679        0.00095600866712
N           -0.37998284983966        1.39888262391618        0.01250965798728
H           -3.12964435502147        2.18280934982077       -0.02107732931844
H           -4.79448873958082        0.10997872408296       -0.03414664430550
H           -3.37888771262313       -2.13063071606301       -0.01153620430760
H           -0.44900401491417       -2.59375023276070        0.01696004304613
H            2.36120738162826        2.19706514521480        0.03422475064596
H            4.71118362317224       -0.79724885038569       -0.22694731302274
H            4.73698270556923        0.89787798481548       -0.11723483889253
