23
 energy: -42.439348953157 gnorm: 0.000812028250 xtb: 6.6.1 (8d0f1dd)
N           -4.12248898079764       -1.59737065438058        0.01373349901000
C           -3.40450613202817       -0.70021660978577        0.00983787972025
C           -2.54029858229083        0.39615374895520        0.00666552189626
C           -1.08228755403945        0.31858622072658       -0.00706281392450
C           -0.59916737345773        1.68414928422862       -0.00561777511759
C           -1.69818115845356        2.52122524523077        0.00916171984991
C           -2.88266185254896        1.72657839980548        0.01631688196215
H           -3.88469657681153        2.11428805168343        0.02777456172622
H           -1.67259051263617        3.59463837679435        0.01526843047723
N            0.71415936463133        2.03068827999054       -0.01485952523658
C            1.55321734274038        1.04532079671791       -0.02362892378324
C            2.99330816605159        1.09500594342137       -0.02648575036101
C            3.46170384421868       -0.19090789932164       -0.02688978983341
C            2.33592585657114       -1.10873936423688       -0.02884801202393
C            1.17988994944767       -0.37638058515823       -0.02316578833079
C           -0.20110222623902       -0.73358379157143       -0.01464266256207
C           -0.57720274015658       -2.09547267947864       -0.00900370282942
N           -0.82179776977772       -3.21542201019742       -0.00550247959246
H            2.42184948396171       -2.18168300269990       -0.03513920769023
N            4.75444536412401       -0.61851944182184       -0.09159337539527
H            5.47619788796660        0.05525957376862        0.09983040835140
H            4.95007505491672       -1.56913969892327        0.17321185131168
H            3.56868119490756        1.99878118975278       -0.02804079352461
