28
 energy: -43.469526578000 gnorm: 0.000447871138 xtb: 6.6.1 (8d0f1dd)
N           -3.74786287205278       -0.96588108563141       -0.12978138544790
C           -2.78524134127080        0.03302791182454       -0.07174394488858
C           -3.04322275423716        1.41132648227409       -0.00607018891807
C           -1.83968070007441        2.09104160498812        0.04456417770819
C           -0.78718571447449        1.15161642546233        0.00825543211192
C           -1.38467938820422       -0.15566575779632       -0.03868713198186
C           -0.60271527992003       -1.32001599498509        0.02342377563911
N           -1.17636911249807       -2.56256646570078        0.06502110612631
H           -0.56033469998354       -3.32193788182503        0.30649627093204
H           -2.10005342753270       -2.61159694264603        0.46399576934324
C            0.78738521156853       -1.15200976552296        0.00787010179705
C            1.83986933231173       -2.09145169801966        0.04393082702040
C            3.04342408269516       -1.41170903814403       -0.00620153202139
C            2.78545288543815       -0.03338182255315       -0.07127932378176
N            3.74809157635328        0.96556643398620       -0.12869560196346
H            4.67872668863948        0.60498416458497       -0.29111950693230
H            3.52184271639288        1.72379595769699       -0.75795886818096
C            1.38488653265002        0.15529204972498       -0.03837807840442
C            0.60290555991411        1.31961789606480        0.02412199378342
N            1.17655993417647        2.56214773198936        0.06637334950484
H            0.56048963401317        3.32141358295312        0.30808870212226
H            2.10017677075625        2.61099066805787        0.46552758997763
H            4.02352472754348       -1.85584144782260       -0.00743978119063
H            1.73669568257337       -3.16236786648022        0.08221690047019
H           -1.73651082590589        3.16194053783844        0.08335788767310
H           -4.02332385876411        1.85545923366857       -0.00726574113719
H           -3.52150161634691       -1.72385686217746       -0.75930960777658
H           -4.67847493656088       -0.60523837500962       -0.29219881288460
