24
 energy: -46.974961133573 gnorm: 0.000717383320 xtb: 6.6.1 (8d0f1dd)
N           -4.15931432460956       -1.23431733608733        0.00025958282130
C           -3.17981613154871       -0.63157166774782        0.00170299926920
C           -2.05441585014400        0.18411798149419        0.00063732236599
C           -0.70828602904824       -0.11851624001582        0.00032532018830
C           -0.01669439159720        1.16223171491139        0.00035904886834
N           -0.91486589570506        2.19607522792957        0.00037525653816
C           -2.10642781600670        1.66240901963534        0.00058533541673
N           -3.24757610029322        2.36052995903427        0.00014142404464
H           -3.19865291221412        3.36383589525199        0.00175431096925
H           -4.13677270699498        1.89352189359126        0.00282093935157
C            1.35700665197595        1.22785426863368        0.00017327464371
C            2.05750527017761        2.44921204273295       -0.00131862079730
N            2.66231496005430        3.42373068052253        0.00219199901579
C            2.07567443153608       -0.01052441154328        0.00024042133432
C            3.42209997054936       -0.28028968978640        0.00014884704850
C            3.60790494230793       -1.71527678581375        0.00001976719928
C            2.40129465333877       -2.32331726817278       -0.00006711703676
C            1.37938688245953       -1.28112010476956        0.00013594749914
C            0.01528306380657       -1.35635849210946        0.00009622764369
C           -0.67657150057361       -2.58786849717400       -0.00109013186941
N           -1.23054189817145       -3.59108233792001        0.00115954082214
H            2.18672567712800       -3.37505655770866       -0.00022020491811
H            4.56948671775807       -2.19309135541586       -0.00003231787813
H            4.21633495951466        0.44420424872758        0.00021367065963
