23
 energy: -43.258749940079 gnorm: 0.000518681656 xtb: 6.6.1 (8d0f1dd)
N           -5.00864528871012       -1.23255709065788        0.00051385497272
C           -4.09355925698048       -0.53695956267314       -0.00020359032522
C           -2.96587164191584        0.28390211465912        0.00022939691664
C           -1.60590493819030       -0.18994467699964        0.00008650102900
C           -0.77441841514571        0.97572107464892        0.00001487524358
C           -1.61392925032641        2.10970990239919        0.00020409454343
C           -2.94039745678137        1.68144521764913        0.00044215845246
H           -3.80762526941506        2.31502756692898        0.00064557346977
H           -1.28051989775931        3.13157416921040        0.00010616727882
C            0.62922464598547        0.85570079572032       -0.00010787023554
C            1.43575154203739        2.01542603930202       -0.00005683823655
N            2.05051404582589        2.98254605114361        0.00049281749725
C            1.15740947622733       -0.43005248047035       -0.00021869010339
C            2.51521861459092       -0.90759845392007       -0.00025578410256
C            3.66661510066945       -0.11781605643685        0.00035065179524
N            4.62814391254302        0.51096347237828        0.00030648306021
C            2.47834507514285       -2.30419317512382       -0.00040930559097
C            1.14802651547717       -2.72285377627377       -0.00040736042601
C            0.31029293076595       -1.58727185236106       -0.00023070315659
C           -1.08227830782463       -1.46693014355957       -0.00003144145107
H           -1.71958399612834       -2.33951447467755        0.00000449781357
H            0.81311028094693       -3.74397841041359       -0.00045073990554
H            3.34226648636524       -2.94228297517262       -0.00048376473932
