19
 energy: -37.974057539593 gnorm: 0.000304784027 xtb: 6.6.1 (8d0f1dd)
N            4.44441350118717        0.07485798143080       -0.01160295064477
C            3.11841528956627        0.02016420371079        0.03245858469747
N            2.36309187694611        1.14835435272536       -0.07282093829655
C            1.12557458720961        0.71825416933349        0.05740410320378
C            1.16965638928678       -0.79657032802222        0.14197376219304
N            2.44684903107955       -1.15027800140377        0.09339815677523
C           -0.00051938909645       -1.51912593087174        0.00333524645985
C           -1.16918043796915       -0.79726019762028       -0.13834888339480
N           -2.44807533963587       -1.15148917214642       -0.09326042459604
C           -3.11827018164470        0.01625845943429       -0.02500654238531
N           -2.36122539767591        1.14589772663515        0.08587007232200
C           -1.12534141818538        0.71680831847015       -0.04990921558856
N            0.00060347197875        1.37754962661222        0.00156188912883
N           -4.44426146083629        0.07465200453497        0.02073035005894
H           -4.98012874768439       -0.77267132807282       -0.04440657615777
H           -4.88718792601607        0.96922951189428        0.13638617767395
H           -0.00059498666019       -2.59824688189764        0.00663747256899
H            4.89027509469633        0.96866302710553       -0.12193134084914
H            4.97756780815382       -0.77459496005216        0.04837265693084
