25
 energy: -45.903660896281 gnorm: 0.000436977739 xtb: 6.6.1 (8d0f1dd)
N            4.34709437669368        2.19599861308894       -0.01784881523893
C            3.58326783151782        1.33514116534993        0.00113129083529
C            2.70886505259971        0.25288666834815        0.01116618483233
C            3.16196577618503       -1.15652253136425        0.00975561549493
C            2.06745756294057       -1.96197047147025        0.00606552436030
C            0.89073214028435       -1.13398363730372        0.00601018742663
C            1.33282933666464        0.26344252744296        0.00790038560750
C            0.41365116068200        1.34718356971212        0.00505668342382
C           -0.90735012891554        1.03452522634391        0.00106777596171
N           -1.98918598229282        1.89140216575724       -0.00064013779952
C           -3.05287528564194        1.14731555821915       -0.00281973752674
C           -2.72899501276589       -0.30681747274618       -0.00341456544864
C           -3.68133069646586       -1.31574268911545       -0.00557946079535
N           -4.51299459454284       -2.11211124878424       -0.00867562971749
C           -1.35615621276842       -0.36311666347373       -0.00123841644142
C           -0.43197370804688       -1.44444705455683        0.00021719864069
H           -0.79081220876768       -2.46307891609579       -0.00223800094098
N           -4.31057840077626        1.60835116159937       -0.00548954084137
H           -5.08989913803637        0.97499818971530       -0.00291774367150
H           -4.46320825309323        2.60094609700457       -0.00220985157602
H            0.76170960907667        2.36780305144672        0.00682822867369
H            2.05952378013313       -3.03431305353830        0.00530995746888
N            4.48008198994756       -1.47882801294438        0.06448587616930
H            4.74965807276007       -2.43335268461040       -0.09584976116678
H            5.16158522342852       -0.76322397212486       -0.12267812003030
