26
 energy: -45.627491352172 gnorm: 0.000585348238 xtb: 6.6.1 (8d0f1dd)
N           -4.38667946849917       -2.26698963160628        0.02683190617998
C           -3.66559049015050       -1.36904244450820        0.00245617058903
C           -2.81513885835933       -0.27065790193200       -0.01472072044450
C           -3.19115049756337        1.06114116183041       -0.01136004051450
C           -2.00004103710853        1.87686034619059       -0.01623333488306
C           -0.89905988529812        1.06077845590603       -0.01949190555809
C           -1.35936007022435       -0.31915183932903       -0.02021068169189
C           -0.49456266840714       -1.36274839314609       -0.02061844676359
C            0.89910088049639       -1.06078688639719       -0.01948539635500
C            2.00007552781257       -1.87686767419399       -0.01622130291141
C            3.19119298539992       -1.06115420061859       -0.01128750947668
C            2.81518766330947        0.27064486581581       -0.01469993248956
C            3.66566549447253        1.36901173265320        0.00218263382056
N            4.38662344407952        2.26704844161386        0.02764188933867
C            1.35940391513561        0.31914633683506       -0.02014214480527
C            0.49460916648900        1.36274247625865       -0.02055517483093
H            0.82993021275900        2.38958754768407       -0.02121224234648
N            4.45241258397215       -1.56001398072950       -0.06016268624332
H            5.21996908850605       -0.92702320175998        0.08976509549939
H            4.60155722406774       -2.52905496773413        0.16042149010035
H            2.00629980652840       -2.95225475518289       -0.01734524475928
H           -0.82988824377239       -2.38959221638306       -0.02132629284926
H           -2.00626822468086        2.95224597457249       -0.01730029082375
N           -4.45238142487424        1.55999812617052       -0.06023499444359
H           -4.60152886168848        2.52903791523296        0.16035733041920
H           -5.21993572670180        0.92700234785723        0.08966820234299
