24
 energy: -46.158458246704 gnorm: 0.000522651646 xtb: 6.6.1 (8d0f1dd)
N            4.40349360017009        2.19524050813029       -0.00384882159926
C            3.62430819888999        1.34914198640544       -0.00487798145927
C            2.73660363851253        0.27535633565643       -0.00397119099410
C            3.09187171103170       -1.06451439227061       -0.00489629292572
C            1.88843692809455       -1.88993605559163       -0.00434255682064
C            0.80914466508030       -1.06636705530778       -0.00240901782419
N           -0.51695159707199       -1.37034991185264       -0.00142592536170
C           -1.29671326066829       -0.33866394083566       -0.00091037957964
C           -2.73678403769094       -0.27520294976780        0.00051651922494
C           -3.62448376289692       -1.34900077896963        0.00079765662318
N           -4.40367785182362       -2.19514309577198        0.00129950106042
C           -3.09205421387186        1.06466537105318        0.00160248137921
C           -1.88861977916088        1.89008934940643        0.00109679894899
C           -0.80932636548683        1.06652216350172       -0.00084148557877
N            0.51676997692436        1.37050543513564       -0.00186426774261
C            1.29653161026712        0.33881958479505       -0.00234408937773
H           -1.88669883718618        2.96397802823520        0.00239969201528
N           -4.33399338734987        1.57264206527787        0.00313792227126
H           -4.48268520654562        2.56572955021355        0.00396749529436
H           -5.12626400184936        0.95305307045605        0.00354435438804
H            1.88651529048431       -2.96382511117119       -0.00565467376973
N            4.33380953243842       -1.57249360227210       -0.00647460097305
H            5.12608137841192       -0.95290617717599       -0.00693337879811
H            4.48249990009699       -2.56558161197980       -0.00725591120113
