21
 energy: -38.191152800688 gnorm: 0.000751756655 xtb: 6.6.1 (8d0f1dd)
N           -3.14609616411920       -2.47396231170804       -0.01171420162772
C           -2.48418662658934       -1.53402150289556        0.01309366634730
C           -1.76361719008149       -0.34124847331177        0.02741990560653
C           -2.39999837456885        0.97932509608631        0.02539601050449
C           -1.42542672358100        1.93319820654082        0.01977248419571
C           -0.13875312593287        1.27638402225559        0.01808939980802
C           -0.38873842087423       -0.16011513270787        0.02281473847267
N            0.56770618448292       -1.11596849360175        0.01655814746665
C            1.77837361878295       -0.67379276187204        0.00323357539206
N            2.92315619710869       -1.46712516965449       -0.00537699006819
C            3.91936566190817       -0.65185536899515       -0.01337059613364
C            3.52411765525978        0.75658557329299       -0.01118261914864
C            2.16242804429204        0.75188749485965       -0.00324458686173
C            1.13754977026940        1.74384229053586        0.00238521959189
H            1.38197990089224        2.79674255307120       -0.00751117218375
H            4.19879799180134        1.59192679923957       -0.01479036254070
H            4.93373936023107       -1.00998378887221       -0.02172360256063
H           -1.56903655194286        2.99650947155484        0.01900146119498
N           -3.75281129452592        1.13078399142105        0.09401966103534
H           -4.32552472497857        0.33540818570959       -0.13540978353122
H           -4.13372190823425        2.03682940635136       -0.11819252295946
