23
 energy: -41.647290159206 gnorm: 0.000740478270 xtb: 6.6.1 (8d0f1dd)
N           -3.38968699255920       -2.59753540887906        0.01876633753987
C           -2.76242777509136       -1.63288596254322       -0.00199277464567
C           -2.10090586319652       -0.40859862345291       -0.01369573521558
C           -2.82093681679103        0.88616239047994       -0.01171078259016
C           -1.91229296781141        1.89635163498258       -0.00645536557801
C           -0.59419314155064        1.32186351311972       -0.00635488496260
C           -0.75312124302407       -0.14248127457885       -0.00987670691492
N            0.26662385442388       -1.03763331056813       -0.00602163191044
C            1.44854949058900       -0.52348150770842        0.00069995004461
N            2.61892748563944       -1.23156244330661        0.00358157231635
C            3.57713261201836       -0.34389485100229        0.00736258342130
C            3.08475306270104        1.04922913309333        0.00782494186047
C            1.73631082784221        0.94826275813651        0.00505190152377
C            0.64855684237906        1.86787929057546        0.00333226970747
H            0.82500302962822        2.93475091008100        0.00939404309264
H            3.70988351094117        1.92219182057299        0.00962701679893
N            4.87399356372918       -0.66831869794858        0.01155536383097
H            5.12328449608553       -1.64204035376184        0.00910059778081
H            5.58810862627772        0.03678539608281        0.01039818611207
H           -2.12061111391976        2.94888693120227       -0.00471817097495
N           -4.17709685717861        0.93755426232805       -0.06592050707019
H           -4.63428595979282        1.81552280254624        0.10612577243017
H           -4.69523010283938        0.09492429394899        0.11659200200310
