24
 energy: -41.377677751450 gnorm: 0.000710855698 xtb: 6.6.1 (8d0f1dd)
N           -3.46677067917113       -2.58530682382373        0.03800749189912
C           -2.85792096732346       -1.60880432701808        0.00831666708861
C           -2.17541439354649       -0.39598751473465       -0.00882554579605
C           -2.85326696258257        0.91388560406977        0.00118845473533
C           -1.90846614719604        1.88942383559859        0.00109658437485
C           -0.60671671838428        1.26612731815166       -0.00957522592554
C           -0.81475305544259       -0.18184920897206       -0.01403946817462
C            0.27049166462347       -1.10046239772567       -0.01946844569469
C            1.52115170165178       -0.57588955306707       -0.01854943799420
N            2.73138845241582       -1.24398807475969       -0.01518673115062
C            3.64955903068550       -0.31976086581308       -0.00777972922357
C            3.09369340557663        1.04167189222614       -0.00510715474016
C            1.74421233787194        0.87698263614875       -0.01090614023080
C            0.64326649108973        1.78972699201470       -0.00763979809736
H            0.82590835789318        2.85450186270228       -0.00314833376184
H            3.67072167847999        1.94718679371749       -0.00172464222470
N            4.97267196393231       -0.58365097039200       -0.05210540769497
H            5.63010063267342        0.13800654666695        0.18461644663130
H            5.25218556384809       -1.54245205078859        0.06587443752779
H            0.09171404219202       -2.16418325026039       -0.02463117498405
H           -2.07876325033492        2.94863871058864        0.00627370440078
N           -4.21332076587472        1.01905480896324       -0.05682795569783
H           -4.75246845358686        0.20631895640332        0.19320109976149
H           -4.61988742509089        1.91131466210343        0.16705024007171
