24
 energy: -42.179058898565 gnorm: 0.000728167721 xtb: 6.6.1 (8d0f1dd)
N           -3.30938552305550       -2.16841342581567       -0.01606404695443
C           -2.64703067323159       -1.22761414723665        0.00757226703886
C           -1.91977835156704       -0.04136552259460        0.02274977736461
C           -2.47641676298935        1.23711276089025        0.02546386692132
C           -1.41566015157272        2.19606892401942        0.02349380041398
C           -0.20499149273103        1.52815839691214        0.01753275795188
C           -0.48233605407619        0.10640453582626        0.01795026007497
C            0.53536001006814       -0.81677394041428        0.00975871832019
C            0.31117344029885       -2.20889815131770        0.00910757747496
N            0.17495424205930       -3.34786249489557        0.00826438494737
C            1.87561356163548       -0.32047607391312        0.00064162557245
C            3.09201546567330       -0.97313276714989       -0.01058667656425
C            4.13413635943516        0.00918828044959       -0.01604335964128
C            3.57885464184243        1.24977905712446       -0.00838625758467
C            2.13582697504814        1.09881214364718        0.00210348973617
C            1.12540522721767        2.01375930408153        0.01021504565490
H            1.31337727193953        3.07799788164396        0.01057553638679
H            4.09189033699009        2.19320384043979       -0.00963991463287
H            5.18270458240961       -0.22344230780364       -0.02503864549638
H            3.24090348658528       -2.03820177285932       -0.01461773622097
H           -1.55813327617868        3.26181978901965        0.02656377388884
N           -3.79757345993797        1.54197608862526        0.08683354863316
H           -4.46106608465893        0.79987026459551       -0.06045017507503
H           -4.09262967170399        2.47711281322548       -0.13284859201069
