26
 energy: -50.406697350510 gnorm: 0.000717750608 xtb: 6.6.1 (8d0f1dd)
N            3.63142738210240        2.55683189102499        0.00711931748306
C            3.12172552263878        1.52563900431064        0.00577815405475
C            2.58115218299103        0.24065071482655        0.00432447307695
C            3.31905674265862       -0.93538629670276        0.00557749894665
C            2.40939353955564       -2.06934379362587        0.00346292474349
C            1.12953710780333       -1.59577548648082        0.00093872422356
N           -0.02021280738916       -2.31695356734273       -0.00155872263554
C           -1.11920240395263       -1.63189163829145       -0.00362172760903
C           -2.46279340041843       -2.11815782293247       -0.00642323439072
C           -3.30703662460296       -1.04939001180926       -0.00778565809018
C           -2.50140518645015        0.20370771246648       -0.00573910590339
C           -3.09287979008411        1.46603250451467       -0.00548051634975
N           -3.66286391023254        2.46473775510241       -0.00896277174794
C           -1.18231637461145       -0.14859502010068       -0.00342583710674
C            0.03214614182104        0.61193553047394       -0.00075398157203
C           -0.00155926265207        2.02292438662517       -0.00017776777664
N           -0.05356047996574        3.16825018679849       -0.00058008749932
C            1.18819988794897       -0.12310892853269        0.00139032385774
N           -4.65283425375165       -1.00907064907780       -0.01052707474277
H           -5.13362790513855       -0.12644509933316       -0.01084370545262
H           -5.18477746843233       -1.86028305027121       -0.01148113599674
H           -2.73144709581920       -3.15492759860966       -0.00716823420543
H            2.71433675724836       -3.09847700786152        0.00387568448572
N            4.65688307697966       -1.05087099386999        0.00826340312230
H            5.22958209942955       -0.22413466691006        0.00960464641220
H            5.09437013482360       -1.95451042589127        0.00894784717246
