23
 energy: -47.231763872243 gnorm: 0.000260367608 xtb: 6.6.1 (8d0f1dd)
N           -3.14304288662780       -2.76817341322633        0.00040616833366
C           -2.72522093698080       -1.69674234676781       -0.00007303577299
C           -2.28689797511530       -0.37417219715300       -0.00019256600950
C           -3.10903704583083        0.74745892402777       -0.00034574290355
C           -2.28233080282415        1.93212587563350       -0.00052330274461
C           -0.96196054406008        1.54748691076019       -0.00044479620752
N            0.12553889321728        2.35080095811439       -0.00055568858278
C            1.26222197856973        1.74318778522850       -0.00043505184811
N            2.50261603947471        2.37127607011480       -0.00050446723495
C            3.38695931504554        1.44456033973211       -0.00029809799611
C            2.80279734913478        0.08459363789946       -0.00005616637039
C            3.54013591829918       -1.09850333045853        0.00042915813357
N            4.18120142999953       -2.05164539742541        0.00009277859659
C            1.44541836424834        0.28334632146915       -0.00018898724945
C            0.28912889247228       -0.56751479996551       -0.00006868937755
C            0.42681498079219       -1.97270704491158        0.00028410864783
N            0.56269958788419       -3.11058376820543        0.00023839230262
C           -0.91366458293482        0.08656010656888       -0.00020941642481
H            4.44107693370590        1.65438567985105       -0.00026079032633
H           -2.64876380005204        2.94159068842305       -0.00070593718591
N           -4.45350409594979        0.76654769710625       -0.00045638678107
H           -4.96634472327601       -0.09815160527001       -0.00007171061377
H           -4.95443886309201        1.63630885885451       -0.00019896968488
