25
 energy: -50.707243327555 gnorm: 0.000726465197 xtb: 6.6.1 (8d0f1dd)
N           -4.52789937630495       -1.50072228651905        0.00189097730715
C           -3.61569140008814       -0.80009348368990        0.00200769997937
C           -2.60124078870410        0.15014280069830        0.00207520215410
C           -2.86708303155397        1.62126347798153        0.00240924808661
N           -1.77212341083829        2.32140354852276        0.00236835853560
C           -0.72900597860378        1.42535105604055        0.00202632971400
C           -1.23648221378305        0.04342714308813        0.00185867973984
C           -0.34866443544031       -1.08153850598516        0.00162147285861
C           -0.85955666440372       -2.39405100891038        0.00211225782993
N           -1.29814364365299       -3.45362100533991        0.00039208949183
C            0.99327559417626       -0.80550240771141        0.00140388107292
N            2.03327161607505       -1.69238000164661        0.00118898414446
C            3.12869144496508       -0.98335967335350        0.00107970638236
C            2.85388546387516        0.47986006370832        0.00124045856146
C            3.84320371207529        1.45381222132778        0.00079514574695
N            4.70572675042047        2.21545244211771        0.00203560168090
C            1.48385182503811        0.58532566604358        0.00156439146001
C            0.60237185920769        1.69563523422964        0.00188298499292
H            0.98091375118518        2.70502552105569        0.00203755600059
N            4.35842605418914       -1.49563362119348        0.00079217544272
H            5.16682549238200       -0.89782730091226        0.00074169390978
H            4.46601725401645       -2.49563792461317        0.00062919367621
N           -4.10140489011429        2.12755714184553        0.00271130892928
H           -4.21889516748728        3.12588466216916        0.00296880322972
H           -4.90383846023101        1.52186856914618        0.00280837167274
