21
 energy: -42.214945290157 gnorm: 0.000692001994 xtb: 6.6.1 (8d0f1dd)
N            3.59917552547331        2.52878201355157        0.00361987559385
C            2.87982178979039        1.63048507659357        0.00284553162254
C            2.11080473386546        0.47530930388371       -0.00000903418761
C            2.70168319309237       -0.89752564072186       -0.00104768838430
N            1.80001447357216       -1.83755679466795       -0.00146850967604
C            0.57977885855710       -1.20834134342720       -0.00031173788582
C            0.75560911894383        0.27129557127145        0.00045999122912
N           -0.24782300802781        1.17473002832744        0.00202220150087
C           -1.43261860814400        0.65196692936123        0.00208034501458
N           -2.62075907035139        1.28622477396265        0.00294576058896
C           -3.51035803681278        0.31317115850653        0.00213668108506
N           -3.01188982466586       -1.00164453870991        0.00117829984896
C           -1.72260980875986       -0.83607623371191        0.00094989527722
C           -0.65902838294942       -1.76696412626001       -0.00011323680652
H           -0.83102433979414       -2.83128737370344       -0.00082418184709
N           -4.82111184109388        0.50166803144042        0.00211519797111
H           -5.18417913450254        1.43927726229370        0.00290822849277
H           -5.43073317441796       -0.29776167586667        0.00102052674324
N            4.01574762618850       -1.10965308262340       -0.00120498318292
H            4.65875352252098       -0.33605127310751       -0.00006407145507
H            4.35812181711586       -2.05543490839168       -0.00222912784279
