22
 energy: -42.723325720248 gnorm: 0.000962506759 xtb: 6.6.1 (8d0f1dd)
N            2.96018182466927        2.96321317837132       -0.00042541522229
C            2.50168419578056        1.90795962315584        0.00050377653530
C            2.05119388025791        0.59488072351765        0.00033419667700
C            2.94359991248898       -0.59314070128418        0.00052211184361
N            2.28424380161197       -1.71353527391158        0.00049155746918
C            0.94395731948452       -1.38638983938241        0.00027406731875
C            0.77826180377456        0.06505209973117        0.00013603039008
N           -0.42465553980620        0.70282542638668       -0.00005320798766
C           -1.44283431171442       -0.07928512921682       -0.00020714390098
C           -2.87251897707587        0.30118625955986       -0.00044148181271
C           -3.34941619544288        1.61334998916715       -0.00045306076724
N           -3.74963688237222        2.68990149165202       -0.00101995404605
C           -3.59354183321064       -0.85389727795695       -0.00057949370592
C           -2.70085957375541       -1.98815399674345       -0.00032452056473
C           -1.40441590238872       -1.54551085106329       -0.00013959381944
C           -0.14561822945693       -2.20310659118428        0.00013005230487
H           -0.06751208522193       -3.27866139407092        0.00019661342735
H           -3.02945165231586       -3.01192095321443       -0.00029285878533
H           -4.66594982301466       -0.92780944507856       -0.00076364054316
N            4.27939676025267       -0.49269616536441        0.00088156551149
H            4.72670363231956        0.40656347550653        0.00037792770162
H            4.83152643083571       -1.33163507717692        0.00070581697628
