23
 energy: -41.656059205104 gnorm: 0.000457103949 xtb: 6.6.1 (8d0f1dd)
N           -3.71751282807361       -2.57669776247435        0.00365095141011
C           -3.05657024260943       -1.63355247972343        0.00316523898067
C           -2.28869422475866       -0.47705040908862        0.00138127485458
C           -2.75860640314600        0.82798124562587       -0.00069597606880
N           -1.72645345979892        1.76444480796618       -0.00304637566619
C           -0.60971953310157        1.09210899107994       -0.00278868290122
C           -0.84995375532358       -0.36537854963683        0.00025620415635
C            0.16683650047413       -1.25583983510048        0.00156487918179
C            1.49579602382959       -0.72143341672632       -0.00179186385323
C            2.72381322890618       -1.29152532881447       -0.00651207172010
C            3.67824145706741       -0.16044235367535       -0.01167279747160
N            3.08988851392229        0.99972725056955       -0.00955246383488
C            1.73191169661548        0.73856353729311       -0.00368861601128
C            0.71296155199704        1.62831068623097       -0.00460324111652
H            0.86649788930510        2.69426813894005       -0.00637446656628
N            5.01018259599103       -0.32273749393702        0.01038529735151
H            5.41856391008488       -1.23115311284678       -0.11381817755964
H            5.59036901126917        0.49507370261413       -0.05799345771287
H            2.99552610705063       -2.32997968752945       -0.00533824581679
H            0.00910758478224       -2.32438944034877        0.00433345174295
N           -4.02565197494910        1.26992403858006       -0.00148419221615
H           -4.19123273873938        2.25990255485808       -0.00126475072650
H           -4.79222952779494        0.62166540784389        0.00161004936405
