24
 energy: -46.177304375246 gnorm: 0.000675074977 xtb: 6.6.1 (8d0f1dd)
N            3.70690856765824        2.77738475044994       -0.00654582751231
C            3.12506436201354        1.78452081162483       -0.00145837937133
C            2.48834778784597        0.55018347003755        0.00011113565457
C            3.21585923551983       -0.75634797825470        0.00035343309550
N            2.41254185197058       -1.77824199364417        0.00291619634856
C            1.13723587856098       -1.28073028369449        0.00449031644749
C            1.16395629932736        0.21502809134220        0.00248291125671
C           -0.05510205327222        0.94212715643315        0.00355277209870
C           -1.18074867836955        0.18414787505103        0.00643591324900
C           -2.59009210392971        0.52175837081006        0.00834568079542
C           -3.12668022077489        1.80550476948095        0.00756329703400
N           -3.59840432225417        2.85568270776523        0.00700611662366
C           -3.30369122953051       -0.66301821587930        0.01114280002820
C           -2.37025003896319       -1.78178778220913        0.01110223604869
C           -1.10090190319042       -1.28610653674457        0.00827704111828
N            0.06380347851989       -1.99053759006765        0.00721083051171
H           -2.65738143088452       -2.81616507659404        0.01299469429157
N           -4.64031297762696       -0.81332464762164        0.01363277013340
H           -5.05248519457337       -1.72842800180060        0.01539811848481
H           -5.23518398617088       -0.00303566435397        0.01339084374580
H           -0.06504096927971        2.02313636208251        0.00215102512216
N            4.54608592338995       -0.83735876190485       -0.00170450877972
H            4.97604811806921       -1.74621997425303       -0.00128512321434
H            5.11304061554453       -0.00704453265533       -0.00367566891047
