22
 energy: -42.721471003281 gnorm: 0.000778315952 xtb: 6.6.1 (8d0f1dd)
N            4.03509176273797        2.10796288538101       -0.00116955181357
C            3.15675306100580        1.36541275685535        0.00460271165009
C            2.13708715429416        0.42099396674396        0.00249268260224
C            2.35148746640053       -1.05482971634360        0.00258798853884
N            1.22871378924784       -1.70904014613829        0.00238493648569
C            0.22084816573063       -0.77519184149413        0.00193070604429
C            0.77345778388844        0.58015733556936        0.00166771360010
C           -0.06279643578885        1.74247282305447        0.00120235399570
C           -1.39544503108948        1.52833315004130        0.00095347474781
C           -2.56607150686142        2.39276094104008        0.00044193390828
C           -3.63346100353726        1.56491018096237        0.00059802039992
N           -3.27218818811032        0.21823419480939        0.00121050187151
C           -1.97227359569062        0.17546429776949        0.00130628340196
C           -1.13218493371863       -0.99256356502812        0.00187723315540
C           -1.69394352591432       -2.28385005289483        0.00306975885809
N           -2.15075881185120       -3.33540958749200        0.00153789941857
H           -4.67902303951829        1.80903912980848        0.00037636905935
H           -2.55309232526455        3.46403318187130        0.00007194587883
H            0.38307408713176        2.72724961363205        0.00103599985376
N            3.56402535045920       -1.61642612455333        0.00309028200311
H            3.63153229518798       -2.61924540848210        0.00349898047944
H            4.39617811326063       -1.05348746811223        0.00347846776057
