25
 energy: -45.899265058065 gnorm: 0.000620149447 xtb: 6.6.1 (8d0f1dd)
N           -3.73909561926608       -2.11507808177544       -0.00187744538784
C           -2.99304914813616       -1.23896669268936       -0.00098418366352
C           -2.19242380443299       -0.10310557212235       -0.00128419356033
C           -2.74220275686760        1.27997246544557       -0.00074236409751
N           -1.81032168254514        2.18374312921177       -0.00184685883114
C           -0.60459932007530        1.50886432482859       -0.00268612144969
C           -0.83152901704894        0.06276535619765       -0.00269911531930
C            0.26768412383277       -0.86185159275466       -0.00267978654726
C            0.03335874963980       -2.24941695111540       -0.00361390977378
N           -0.14406806063012       -3.38378045809705       -0.00637159948553
C            1.53248144114459       -0.33476146257008       -0.00204887752390
C            2.81861667174965       -0.95983654270095       -0.00623818572669
C            3.76102284674124        0.02835853370029       -0.01291705689805
C            3.08785215107988        1.33120619689284       -0.00959480465776
C            1.74377469595439        1.12192217189258       -0.00478964974825
C            0.64728622468741        2.03147532601731       -0.00399779788542
H            0.81611800272205        3.09623154579345       -0.00442893656406
H            3.60130555499481        2.27551412831785       -0.00987385250737
N            5.11183292407891       -0.08960784142430        0.02866407632561
H            5.51968123061565       -0.99685562277784       -0.11547451994547
H            5.67922288396631        0.71316710162193       -0.17899544770514
H            2.98500051419429       -2.01926827579292       -0.00465212108082
N           -4.05864321194300        1.53287192256310        0.00027362083133
H           -4.37155810670291        2.48671877335346        0.00108189586220
H           -4.72283716065355        0.77971965258392        0.00174450713974
