23
 energy: -41.647819183322 gnorm: 0.000278596294 xtb: 6.6.1 (8d0f1dd)
N            3.56983576699247        2.55032333335425        0.00435242864556
C            2.87592476613223        1.63162097225328        0.00275356746685
C            2.12949382733288        0.46183823882815        0.00077304851352
C            2.73236927116548       -0.89809966135266       -0.00231476437720
N            1.84362968219450       -1.84545312710814       -0.00315040563010
C            0.60986806579194       -1.22332683760531       -0.00067777655645
C            0.77436157738532        0.24092878725837        0.00114890609713
N           -0.24733315769418        1.13640520503847        0.00272832736866
C           -1.43194250856354        0.61484180472824        0.00400623977041
C           -2.69120961512572        1.29151937701411        0.00962252279603
C           -3.67112443186100        0.34385515255753        0.01679781539692
C           -3.05822813755529       -0.99882506176726        0.01158591015750
C           -1.71388649281743       -0.85188577964631        0.00590031877333
C           -0.62823389815699       -1.77482181529073        0.00240026226877
H           -0.79328008052676       -2.84135047677240        0.00293308237761
H           -3.62289890386121       -1.91411563501738        0.01091276486835
N           -5.01223607246539        0.51246620032692       -0.01033629278235
H           -5.61688175131068       -0.27392571449309        0.14702569017950
H           -5.39491223108522        1.43480481865778        0.10003217554323
H           -2.81074904720715        2.35576338013621        0.00967499594918
N            4.05776926158429       -1.09588306039513       -0.00196359576409
H            4.41108913989286       -2.03573442572580       -0.00841572591182
H            4.68949013545855       -0.31520116237907       -0.00711395985052
