21
 energy: -38.211968447442 gnorm: 0.000883351006 xtb: 6.6.1 (8d0f1dd)
N           -3.34360581391539       -2.43461333089840       -0.00941803116839
C           -2.62188030431631       -1.53843408573907        0.00291830296374
C           -1.81314309764618       -0.40928844393653        0.00985545872125
C           -2.33101409462115        0.98422250731437        0.01065057175486
N           -1.37705503984978        1.86387022928540        0.00890318411914
C           -0.18616333071712        1.16129658675348        0.00823037284448
C           -0.44425197672595       -0.27880484707879        0.00896691145908
C            0.61770444382789       -1.23301277937431        0.00687575051736
C            1.87287708836200       -0.73079207910958        0.00240099028727
N            3.07966245436052       -1.43712577759091       -0.00076803933067
C            4.01038610410666       -0.54672485070305       -0.00521382801202
C            3.50527775089170        0.81941324959589       -0.00490220153380
C            2.14369181897053        0.70759692351129       -0.00022839224689
C            1.07766362394256        1.65488127062846        0.00278409439755
H            1.27616679259041        2.71462231020482        0.00088119409701
H            4.10629337523996        1.70839311399556       -0.00829342139471
H            5.04970304659801       -0.82483263477674       -0.00835855668447
H            0.41356315720380       -2.29267940880530        0.00874968257331
N           -3.64131349900707        1.27240123905284        0.03685186815629
H           -4.32691753019821        0.54394681483910       -0.05426239799707
H           -3.92278721369689        2.23478639893135       -0.02052314772332
