27
 energy: -44.558990117176 gnorm: 0.000523139619 xtb: 6.6.1 (8d0f1dd)
N           -5.46283228322792       -0.48447069108644        0.02084308346916
C           -4.31167497418907       -0.46515792720011       -0.00429778104553
C           -2.92000524171944       -0.39116956659897       -0.01718154723018
C           -2.19090632683093        0.82717359076502        0.01685212428255
N           -2.74794717162227        2.07305905004395       -0.00820625407747
H           -3.73226982130616        2.13664187866588        0.19634604331830
H           -2.18036291185646        2.84730296570360        0.29142713891968
C           -0.81581821921329        0.50381458096052        0.00844823215690
C           -0.71625331970093       -0.94407441249572       -0.02324638465992
C           -2.01686217808162       -1.46318905080795       -0.04040432806010
H           -2.29066271255337       -2.50218035871507       -0.06525070243771
C            0.52738637316872       -1.56954820143846       -0.02929487592189
C            1.65169276778596       -0.77274033592164       -0.00970013731750
C            3.04692504632964       -1.09124768300174       -0.00400575322800
C            3.77506024093032        0.10048171200740        0.00858082323950
C            2.88691419996576        1.17818934901641        0.01336688916480
C            1.55089373125631        0.66824355964830        0.01061633307146
C            0.32405672955743        1.29843901976001        0.02218130207579
H            0.24706358874428        2.37913581812971        0.04116164574191
N            3.22583572192492        2.49167337048323        0.07433165966859
H            2.51931375718147        3.17378500484856       -0.14013583761809
H            4.17730332259348        2.74824459613194       -0.12626771875356
H            4.84722488941376        0.17645844210594        0.01221822926620
N            3.56235264128421       -2.34360338058691       -0.06188464742623
H            2.95010077388710       -3.12063362732931        0.11482695358803
H            4.53979571657014       -2.47488300583327        0.13254623139709
H            0.59277323780805       -2.64967480505487       -0.05239739008392
