26
 energy: -44.839880823089 gnorm: 0.000656211248 xtb: 6.6.1 (8d0f1dd)
N           -5.26899057049768       -0.77638074647995        0.04475037713956
C           -4.13079629404493       -0.60821129672729        0.01892343517464
C           -2.75837339656268       -0.36214319926014       -0.00212124651183
C           -2.17678815529272        0.92783863627411        0.00267235718047
N           -2.85674265023264        2.09586940289357       -0.03409548566844
H           -2.36880718170758        2.95749322010750        0.13430747963624
H           -3.85332037732161        2.08079802124965        0.10191365741642
C           -0.76272648752928        0.76360412932840       -0.00610137670159
C           -0.50006575586756       -0.66123754618048       -0.01599151001850
C           -1.73169684249656       -1.32111225030308       -0.01753559136566
H           -1.90252330701432       -2.38318839529885       -0.01552010233713
C            0.81724384008751       -1.15962166211832       -0.03955632777097
N            1.07368380326055       -2.49669272277274       -0.06874597746806
H            0.29766798033410       -3.10733131717407       -0.26353991478480
H            1.96814349620050       -2.79251927148710       -0.42190272885423
C            1.84088338433579       -0.20647922767429        0.00011749732882
C            3.25216938873257       -0.27995755733423        0.04250228014969
N            3.81645642191635        0.94987956417161       -0.00175390954192
C            2.82549455749633        1.83111589291231       -0.04433205320291
C            1.55861149049771        1.20940555459409       -0.02971454506272
C            0.25949084668284        1.69407732957860       -0.02837269834683
H            0.06688502717929        2.75803235724776       -0.04065039897793
H            3.03630123478599        2.88471360299644       -0.07591749080434
N            4.04513175463818       -1.39080452946955        0.09757584271844
H            3.70283055478313       -2.17148832903067        0.63616623883097
H            5.01921806123620       -1.17121033934351        0.24856561494195
