26
 energy: -44.837820737700 gnorm: 0.000895943160 xtb: 6.6.1 (8d0f1dd)
N           -4.91993647583258        0.02094129687347        0.06862357942896
C           -3.77070973013533       -0.03666276106886        0.02156688267028
C           -2.38101573444327       -0.09740050787327       -0.01683621123430
C           -1.60273796390297       -1.27192395363896       -0.05175017730426
N           -2.08135536040654       -2.52648068756526       -0.10912297202257
H           -1.45461240785993       -3.30788795021897       -0.04342701575361
H           -3.07182363436803       -2.68873678626622       -0.05427968452042
C           -0.22662706124050       -0.89138983858370       -0.02958702821083
C           -0.17641540980812        0.55552023314600       -0.01416859416409
C           -1.51044344985539        1.02349619732155        0.02960055437313
N           -1.93575789335260        2.31262087394272        0.09668468959810
H           -1.32927008961667        2.98441524255667        0.53865591147568
H           -2.92262658154497        2.44442279609362        0.26195712607678
C            1.04627414887152        1.23766811326327       -0.05241888156503
N            1.12681029704686        2.60072153539143       -0.11424873918835
H            2.04880277537606        2.97261248408004       -0.27982273091642
H            0.38012836310781        3.09202100319571       -0.57782749753443
C            2.20579087799819        0.44486548762695        0.00519649269660
C            3.57615800269769        0.73231097297064        0.01627786572471
N            4.31822058321107       -0.38465296866074        0.04917325235181
C            3.47886304417507       -1.41863008591178        0.05238807080597
C            2.13504552254954       -0.99858049809348        0.03118133544919
C            0.91588371962468       -1.66409870686353       -0.00327609297973
H            0.87595171085954       -2.74480164238711       -0.00335351574489
H            3.85116433923593       -2.42702571723637        0.06707823100042
H            4.06137208511300        1.69318252130622        0.01568103538731
