29
 energy: -47.998750949175 gnorm: 0.000916759235 xtb: 6.6.1 (8d0f1dd)
N           -5.47878147874554       -0.61201737680836       -0.04224249678574
C           -4.32728128440588       -0.61235541765504       -0.01472865457844
C           -2.93525819307563       -0.54908929548090        0.00159941712875
C           -2.20068792100315        0.66868654306470       -0.02789067624504
N           -2.76826322561622        1.93187944587357       -0.04339806742370
H           -2.32784158281908        2.59086906032965       -0.67041384649761
H           -3.77385223732304        1.90945719292587       -0.15599730148939
C           -0.83357230123591        0.34365669437560       -0.01228321749377
C           -0.73526825144490       -1.10018363281508       -0.01101081261360
C           -2.03649602987952       -1.62089323401053        0.01145001442214
H           -2.30758365498354       -2.66063527139226        0.02861220521834
C            0.50515364487985       -1.73375586892981       -0.00492404442000
C            1.63147140225832       -0.94269802260894       -0.01901862102696
C            3.02416352694191       -1.28114217777565       -0.00311562819800
C            3.76253071779981       -0.10190953237109       -0.02072483465078
C            2.88214205490695        0.98734066686002       -0.04644750524077
C            1.54883840437649        0.49896626738955       -0.01441631824303
C            0.31660498051939        1.15043729421798        0.05752187368149
N            0.21587746685058        2.51765690876335        0.19545867462538
H            1.00917462569336        2.95680705370511        0.63875063482918
H           -0.67081363202157        2.82729011371363        0.56539492548320
N            3.26102232628065        2.30816349703259       -0.07881981868900
H            2.64797494154392        2.92651201812162       -0.58798145764886
H            4.23909129147839        2.45777104179312       -0.27994984257644
H            4.83549019514546       -0.03260004547964       -0.03098191189684
N            3.52078782006230       -2.54534856458202       -0.03917380564338
H            4.48998753424354       -2.68351050516228        0.19036539494463
H            2.89394919264291       -3.30342318646580        0.16754516403976
H            0.56400639103010       -2.81379334902768        0.00139964998806
