24
 energy: -41.393738549377 gnorm: 0.000786169010 xtb: 6.6.1 (8d0f1dd)
N           -5.03712839638844       -0.42457741521362       -0.00071878516529
C           -3.88746098453984       -0.37859277758241       -0.00139036483144
C           -2.49735321303629       -0.25867578138456       -0.00072380327635
C           -1.80783369157065        0.98246711455147       -0.00062112374243
N           -2.38876967563946        2.19323418118635       -0.00054776155328
H           -3.39141019869027        2.26648196568385       -0.00162482560652
H           -1.83309340382313        3.02900979616386       -0.00156135553987
C           -0.41064170228443        0.69992418697591       -0.00033975872331
C           -0.26838556344719       -0.73858595944447       -0.00020174887236
C           -1.55456035519402       -1.29426744753446       -0.00035888568586
H           -1.80840528239778       -2.33958633710084       -0.00035747207578
C            1.00144499311977       -1.34687279393632       -0.00000128885520
N            1.15775938447023       -2.68252916651451        0.00021667731507
H            2.07946107211255       -3.07987683129677       -0.00009284239290
H            0.36042730392458       -3.29218557469488       -0.00034375384741
C            2.10900765393398       -0.47408180702853        0.00011635975381
C            3.49406166669378       -0.66908564833086        0.00029729905871
N            4.16315145787384        0.49752677289925        0.00030897819821
C            3.25861454878952        1.46982724072080        0.00015285343550
C            1.94064162583816        0.95849547669204        0.00000546400122
C            0.68385178409759        1.54581054781087       -0.00024302234813
H            0.57552192589841        2.62192821424704       -0.00034845649262
H            3.56079842467290        2.50146272562643        0.00013192500037
H            4.04259152798620       -1.59497750489563        0.00040781984589
