25
 energy: -41.120973884728 gnorm: 0.000413151703 xtb: 6.6.1 (8d0f1dd)
N           -4.82656207153635        0.00016987397348       -0.00045028422354
C           -3.67454233006881        0.00125888897359        0.00042643854569
C           -2.28372790234350        0.00072285841250        0.00018151717891
C           -1.45634209247086       -1.14832505384221        0.00025415630287
N           -1.89486071718436       -2.41582575747492       -0.00006397281805
H           -2.88125690817291       -2.60909032075749        0.00089524228483
H           -1.24286018074663       -3.17890521968062        0.00127024268971
C           -0.09632455697514       -0.71976275117444        0.00040477104897
C           -0.09597858667291        0.72009452660911        0.00033495914213
C           -1.45577289660749        1.14932495521095        0.00011402615029
N           -1.89369290649691        2.41702787884680        0.00007945557753
H           -1.24133284062913        3.17979824803912       -0.00007296711588
H           -2.88000029390648        2.61075479256999       -0.00021478691523
C            1.08882777873537        1.43873435675763        0.00051094719739
C            2.27783600075671        0.72638035169195        0.00075178838070
C            3.62456556505337        1.13663113433441        0.00099044646817
C            4.42664934450660       -0.00086096805435        0.00117756098476
C            3.62404960622763       -1.13799078491315        0.00106254541976
C            2.27750038633391       -0.72713641305869        0.00080566166718
C            1.08816041122027       -1.43894768944617        0.00064099378837
H            1.09300892615625       -2.52140848306081        0.00068603139746
H            3.96892337908789       -2.15650563432079        0.00115491374615
H            5.50267361461596       -0.00110119250688        0.00138184571645
H            3.96989637584876        2.15499172985532        0.00103325302246
H            1.09416923516881        2.52119250281564        0.00047841836289
