28
 energy: -49.088809999377 gnorm: 0.000782163329 xtb: 6.6.1 (8d0f1dd)
N           -6.06028693418701       -0.42444417361474        0.01360607303675
C           -4.90962366087903       -0.42076994715958       -0.00164373769404
C           -3.51542890859522       -0.36638310864113       -0.00700898772473
C           -2.77108402859347        0.84355024692949        0.00947013201718
N           -3.30981698085911        2.09083605925761       -0.03414822084460
H           -4.29838469577454        2.18161576004022        0.13203874737855
H           -2.73110016578083        2.87651848471126        0.20479908450306
C           -1.39864076480872        0.50123382008373        0.01171214179278
C           -1.32012921473316       -0.95186007716443        0.00207857136105
C           -2.62944962297070       -1.45083342866398       -0.01018983349111
H           -2.91839878412695       -2.48564132488946       -0.01857372978271
C           -0.08996441470807       -1.59586038984011        0.00614277745122
C            1.05041127883660       -0.81554167066568        0.01635330035157
C            2.42972077515533       -1.16639382069801        0.01997249107847
C            3.18773129394637        0.02850113556232        0.02150857231711
C            4.57726175324654        0.10801173603339        0.00603979547129
N            5.72653229220112        0.17701590330011       -0.01879709131544
C            2.30148133001047        1.13165702093932        0.01950635113709
C            0.97059883241030        0.63070644246649        0.01902922609279
C           -0.25148823488144        1.27861235840057        0.01893239712227
H           -0.31061495564671        2.36007147084202        0.02228366226908
N            2.67727360344402        2.42569569581012        0.04893226702481
H            1.99350135668384        3.14895885001322       -0.08117883286563
H            3.64979488437187        2.66038248007368       -0.05133337225175
N            2.94159355279381       -2.41077183904423        0.04559750714362
H            2.33517189805791       -3.20555751399836       -0.04377791236024
H            3.93513892913367       -2.54543031883071       -0.02441654384564
H           -0.03973732484700       -2.67644960665314        0.00154211712715
