32
 energy: -55.970183814116 gnorm: 0.000602863710 xtb: 6.6.1 (8d0f1dd)
N           -5.90085576855532       -0.14578752198940       -0.10337767876837
C           -4.75015107195615       -0.15862975452085       -0.04741184126319
C           -3.35988166586987       -0.16013707261841       -0.00579703742601
C           -2.54065252456687        0.99794615799920       -0.02792803109535
N           -3.02323606475040        2.28673639025838       -0.04705223855820
H           -4.02226432715304        2.34731480264990       -0.19009213499548
H           -2.50047801083983        2.94661420243913       -0.60377306991187
C           -1.19496714062413        0.58439883992387       -0.00634227654989
C           -1.18577990880642       -0.86753118102239       -0.00786182637583
C           -2.53451550426600       -1.30357779593256        0.00534824818058
N           -2.97392133066462       -2.58931252305073        0.07612373386788
H           -2.33604385148869       -3.32276362857132       -0.18041068953837
H           -3.95016434540560       -2.75695115178743       -0.10415690995948
C           -0.00043890628447       -1.58056497071832        0.00770378651453
C            1.18531764272618       -0.86833943596046       -0.00605288980051
C            2.53415564094628       -1.30412735498220        0.01470520034741
C            3.35958348815598       -0.16100785237874       -0.01399010070959
C            4.75046837469387       -0.15884411206081       -0.02599736440558
N            5.90261411153584       -0.14596995094521       -0.03597008504004
C            2.54020503711316        0.99671638402989       -0.04680186304711
C            1.19476374780623        0.58361770858655       -0.01332626257616
C            0.00032826494067        1.31240975744805        0.06197154332932
N            0.00130804180089        2.68217357282376        0.19720205329249
H            0.84696848463403        3.06324418275726        0.59508519094376
H           -0.83958506144606        3.06341172053830        0.60484125157397
N            3.02196272583842        2.28567000758633       -0.07973454909146
H            2.49302652105494        2.93996181950964       -0.63726870137271
H            4.01928564109022        2.34552617980287       -0.23448485778445
N            2.97452034493629       -2.59106336234465       -0.01240906067455
H            3.94636796931008       -2.75461134640616        0.19297160910090
H            2.33021908860151       -3.31842986622388        0.24462736630340
H           -0.00121408090713       -2.66245298203968        0.02468584899015
