25
 energy: -41.115744647133 gnorm: 0.000431314124 xtb: 6.6.1 (8d0f1dd)
N           -5.01553351217101       -0.46129636377985        0.02369444864396
C           -3.86615430813248       -0.50866551492102       -0.00909733775544
C           -2.47179669183568       -0.49433866247837       -0.03229830392845
C           -1.60443068526976       -1.58055589067057       -0.07025942112202
C           -0.28007566029371       -1.09708179427835       -0.04195209130053
C           -0.33554943566541        0.34440416394881       -0.01323020298828
C           -1.69609786377891        0.70820732378670        0.02912077653057
N           -2.23601364387953        1.95523409313808        0.11080870084617
H           -3.23295915121399        1.98947034919530        0.26855734261905
H           -1.70296585409035        2.66930029662380        0.58101000448333
C            0.84096302182566        1.11632924338880       -0.04667872251522
N            0.80756496737924        2.47615201415516       -0.11380310630713
H            1.68742582878121        2.93762535936691       -0.27897427861069
H            0.00210551993033        2.90812022369646       -0.53543421468249
C            2.05817844042897        0.41659067269252        0.01010135920135
C            3.39001489387979        0.86052749080892        0.02773625084625
C            4.22857222044303       -0.25814170235681        0.05913097943549
C            3.45667436234770       -1.40688802432639        0.05276326744722
C            2.09327162184476       -1.02644232418131        0.02590235271103
C            0.93086177361861       -1.77669592473767       -0.01780092251632
H            0.95958794065666       -2.85697531897467       -0.02099377988404
H            3.81953450426481       -2.41832864983696        0.05942335694352
H            5.30292718188305       -0.22337621953425        0.08167958675957
H            3.72723126820016        1.88293215509477        0.03289592283744
H           -1.89868136675324       -2.61332461812001       -0.10693123379434
