29
 energy: -48.003907510001 gnorm: 0.000818994810 xtb: 6.6.1 (8d0f1dd)
N            4.96370028052292       -0.00205842196619        0.00113463931448
C            3.81109091591422       -0.00073511446303        0.00129175930374
C            2.42147772300080       -0.00059415853314        0.00117501974103
C            1.59474828435020       -1.14610889626749        0.08167894822913
N            2.05781651166405       -2.43217588932665        0.16948596608013
H            3.04840630536884       -2.51251647652893        0.35079279451722
H            1.48871546352541       -3.07739446166200        0.69580863585356
C            0.24927450316204       -0.72245595573363        0.02095031475422
C            0.24963681581935        0.72228459543730       -0.01890939512443
C            1.59530909481786        1.14528343138324       -0.07950636578945
N            2.05904242584413        2.43110733558495       -0.16726779454675
H            1.49034994819490        3.07660456127869       -0.69368442100854
H            3.04970307456705        2.51092855160218       -0.34843576500064
C           -0.94446202444623        1.45374541949364        0.03818362837463
N           -0.95039598662931        2.82157215792596        0.08672425912782
H           -0.15782651192906        3.26602413612457        0.52137569111718
H           -1.84214387011404        3.24081919814327        0.29796216093735
C           -2.14116349014953        0.72024812703791        0.02317628934402
C           -3.48471147610850        1.13392609408391        0.03624744538054
C           -4.29026571441383        0.00109846432635        0.00074487373877
C           -3.48529633482957       -1.13215053027267       -0.03465773014432
C           -2.14153131660321       -0.71917807376683       -0.02141466607253
C           -0.94520382803464       -1.45329877180305       -0.03627382789764
N           -0.95185322948361       -2.82112270529106       -0.08481486892225
H           -1.84379839718009       -3.23989796058896       -0.29615960833732
H           -0.15947203864791       -3.26598982114209       -0.51938083968092
H           -3.84410175716989       -2.14690062499922       -0.04970537543316
H           -5.36586218654234        0.00138095496434        0.00067770185261
H           -3.84298624537010        2.14886481265859        0.05125049979153
