25
 energy: -51.489526962280 gnorm: 0.000232099350 xtb: 6.6.1 (8d0f1dd)
N           -2.89919370198558       -3.65674137726224       -0.00000054127643
C           -2.50955589803162       -2.57705688693783       -0.00012103230938
C           -2.09811051490809       -1.23942339261048       -0.00000069133015
C           -3.02562476511376       -0.12604989313644       -0.00015839194698
C           -2.31973983683081        1.03918035003021       -0.00009061745717
C           -2.83573086797906        2.34064145376174       -0.00013106758041
N           -3.26568182489004        3.40448877021952       -0.00041998674535
C           -0.89314949191590        0.70094934948448        0.00005789329420
C           -0.80330987724843       -0.74400123331312        0.00015139259774
C            0.46208517089897       -1.41277163362229        0.00034658928299
C            0.53973877370187       -2.82092174831803        0.00061146172145
N            0.60099821695749       -3.96527409134315        0.00025724060117
C            1.58730855909630       -0.62493773072748        0.00042606099106
N            2.89722177014616       -1.01356460037474        0.00060227382649
C            3.60960841183360        0.08612449040488        0.00062720503965
C            2.77716217271327        1.29678530712436        0.00044018724675
C            1.49343009515754        0.83668119619248        0.00032395783603
C            0.21685356402382        1.49585851516591        0.00011621111496
C            0.18426269252761        2.90758864224515       -0.00042874099357
N            0.22658877234414        4.05275570632376        0.00057439892017
H            3.13148538288049        2.30966356452765        0.00043066434294
N            4.94713493885290        0.09638635259513        0.00076151131066
H            5.46307322574897        0.95718816532853        0.00090516698277
H            5.43275310206791       -0.78376980137863        0.00090684771569
H           -4.09453597324767       -0.23191873117928       -0.00031019488521
