24
 energy: -41.390450630873 gnorm: 0.000939784228 xtb: 6.6.1 (8d0f1dd)
N            5.03272017110422        0.46386720879160       -0.01847915141956
C            3.88397825668804        0.51327969308190        0.01038365336445
C            2.48778982431525        0.49834696383107        0.03079220886054
C            1.71502425192401       -0.70792880854085       -0.03100424797785
N            2.25962625672241       -1.95016238835644       -0.11640542379108
H            1.72682206773441       -2.67326378972213       -0.57190561727339
H            3.25726940138835       -1.98419293033688       -0.26756156608543
C            0.35347540860250       -0.34844376386554        0.01224872598146
C            0.29477629725182        1.09741955473877        0.03928628436419
C            1.62211512231966        1.58207619343349        0.06812957407635
H            1.91313071675514        2.61560325097426        0.10432024381107
C           -0.90929328332973        1.78074686913577        0.01417549610080
C           -2.07080116013199        1.02204007752017       -0.02732830271907
C           -3.44710287673927        1.33925679720001       -0.05092092387247
N           -4.20525436031209        0.24570827315636       -0.05696376728286
C           -3.37908694862616       -0.81127714188336       -0.02850811788230
C           -2.03308330770375       -0.41969413408602       -0.00896034699358
C           -0.81779707308230       -1.12622048240735        0.04942164324187
N           -0.79342189593990       -2.48086965744694        0.12520474825154
H           -1.67528912865810       -2.94324237932383        0.27461814494927
H            0.01636626844191       -2.92604706618870        0.52384334538004
H           -3.78848594208470       -1.80679083062475       -0.03698274291265
H           -3.89403145244626        2.31663339279531       -0.05737282830314
H           -0.94091809339347        2.86047415812412        0.01623969673182
