26
 energy: -45.643132899350 gnorm: 0.000639099454 xtb: 6.6.1 (8d0f1dd)
N            5.87427289711235        0.54545773294247        0.01052417632766
C            4.72545768319437        0.49073945040506        0.00318033433219
C            3.33422923134470        0.37300262845214       -0.00409327262179
C            2.64448868693963       -0.87654053523231       -0.00464116444853
N            3.23651823286940       -2.08428440144677       -0.01566375605082
H            2.68708535132652       -2.92266054760154        0.03236126757718
H            4.23871304588288       -2.15116699696933        0.02668579300913
C            1.25318385940173       -0.59854728039312       -0.00712991418671
C            1.10724865506750        0.84349733512970       -0.00740700281205
C            2.39835015441358        1.40679857737584       -0.00581579239070
H            2.63280488766129        2.45552880709653       -0.00504672929229
C           -0.14716975378684        1.43336644345889       -0.00743571701038
C           -1.25316697737192        0.59879394451455       -0.00714914282308
C           -2.64448440432354        0.87679813781714       -0.00475420038431
C           -3.33422365518475       -0.37275709426691       -0.00442603329181
C           -4.72546158280498       -0.49044103823994        0.00186589402761
N           -5.87422793118258       -0.54527610016611        0.01117671893732
C           -2.39835579123380       -1.40654283316462       -0.00586293508803
C           -1.10723437312463       -0.84324876462204       -0.00739772607389
C            0.14716578432153       -1.43312181383020       -0.00741390598711
H            0.24625530540960       -2.51040389539116       -0.00790456598444
H           -2.63280534695612       -2.45527580561127       -0.00520225500160
N           -3.23649444166916        2.08451023531689       -0.01586533397878
H           -4.23871011309567        2.15140335297698        0.02630098429745
H           -2.68708895792361        2.92289467550485        0.03214265637707
H           -0.24625408418753        2.51065021124435       -0.00795028555921
