23
 energy: -47.236734856515 gnorm: 0.000433655772 xtb: 6.6.1 (8d0f1dd)
N           -2.97815500587989       -3.26745714110789        0.00199603471433
C           -2.55211763854535       -2.20125090127244        0.00107056966566
C           -2.08363950631384       -0.88290901067991        0.00062985259645
C           -2.96885405666425        0.27795222222971        0.00128300372766
C           -2.22632635065575        1.41326605441202        0.00009733023905
C           -2.67840759208834        2.73743957575267       -0.00070848278112
N           -3.04999296995842        3.82303010986734        0.00136973716520
C           -0.80350798659360        1.01894149907452       -0.00092590603778
N            0.21755183344279        1.79591366801349       -0.00225957846147
C            1.42435949531124        1.16002542529433       -0.00327289824680
C            2.68407739521512        1.67904651893423       -0.00451271246297
C            3.56979483782644        0.50277837704544       -0.00512697709053
N            2.91316007275333       -0.63118257743343       -0.00435099393384
C            1.58649855460359       -0.30300617696864       -0.00312472686440
C            0.48311509974524       -1.12239594959825       -0.00182922069942
C            0.56940921604098       -2.53066069889244       -0.00179824134242
N            0.63215781870854       -3.67493173659827       -0.00162816910675
C           -0.77596009635077       -0.44707735343992       -0.00063951748829
N            4.90417562956083        0.57610991524077       -0.00641928321458
H            5.37805744924216        1.46100419952076       -0.00682849353476
H            5.43106474511250       -0.28040184367397       -0.00675984736560
H            2.99082767388851        2.70593345729902       -0.00496809192685
H           -4.04121008040109        0.20688629588091        0.00215985254921
