25
 energy: -51.480566684750 gnorm: 0.000325921038 xtb: 6.6.1 (8d0f1dd)
N            1.65225750525791        4.51691697866968        0.00055411021481
C            1.70544348632659        3.37011718892550        0.00063288838498
C            1.80753661764424        1.97599369257269        0.00033818777116
C            3.04961325411367        1.25084919065369        0.00033355721519
C            2.78360670003413       -0.09321613148380        0.00008080469642
C            3.71412239578330       -1.13816672198719       -0.00008725240257
N            4.47519628149761       -1.99746559537354       -0.00016143549397
C            1.33479093360739       -0.26551830456371       -0.00002139696760
C            0.75606592288485        1.05552337644438        0.00010370079454
N           -0.57143829630998        1.31166825245995        0.00005621651747
C           -1.33933833419009        0.27157521236960       -0.00010559380326
C           -2.79105915697973        0.21984214811671       -0.00018409047590
C           -3.66335150425272        1.30501354971816       -0.00010025864399
N           -4.43194547792606        2.16034146631417        0.00019058706991
C           -3.16653892387646       -1.11947504113627       -0.00027919730887
C           -1.97847540502842       -1.93803645935676       -0.00033244622026
C           -0.87612147787151       -1.11724665660474       -0.00020118214223
C            0.52439176249943       -1.37790169987530       -0.00014159378863
C            0.99691601486459       -2.70965040882062       -0.00012968350304
N            1.32638040961287       -3.80697813083542       -0.00031807787043
H           -1.97814546399643       -3.01414877302115       -0.00047930647757
N           -4.41909093611559       -1.61049979510240       -0.00075263229771
H           -4.58357827098946       -2.60057850843583        0.00054947781709
H           -5.20241264724143       -0.98086560616650        0.00022329906772
H            4.02080188905134        1.70971716541872        0.00051178414672
