21
 energy: -43.788521505213 gnorm: 0.000666978192 xtb: 6.6.1 (8d0f1dd)
N           -3.60440262370739       -3.08809312579263       -0.00250580521503
C           -2.99476799465183       -2.11590609369901        0.00110546968670
C           -2.22778139604089       -0.94543228072077       -0.00032813992328
C           -2.67660768539888        0.34528679926818       -0.00050223733712
C           -1.53727037582596        1.22585432680971       -0.00041201049399
C           -1.64047219696617        2.62302257169295       -0.00016779670760
N           -1.77013295672678        3.76306953478760       -0.00026581091464
C           -0.37165682679357        0.45879260828449       -0.00053759974943
C           -0.75967434399487       -0.92578957908567       -0.00061027781583
C            0.13873658174147       -1.95048252503815       -0.00054467642588
C            1.50925787054346       -1.57671994468132       -0.00049265067226
N            2.59297901367170       -2.32584090651770       -0.00054374476568
C            3.62976905003852       -1.42127690358305       -0.00021587537194
N            3.29542012591840       -0.16483409925063       -0.00007025366073
C            1.92029862730305       -0.17705596242417       -0.00034624089037
C            1.00627117024861        0.84847559090441       -0.00033756244200
C            1.38774056896397        2.20649719236527        0.00095262031071
N            1.69601606092758        3.31014669814300       -0.00134908300870
H            4.64943328666733       -1.75514590092528       -0.00021914294571
H           -0.14933036820589       -2.99080546844704       -0.00046603244205
H           -3.69870250581186        0.67515290770977       -0.00032769241521
