23
 energy: -47.240804302199 gnorm: 0.000814722776 xtb: 6.6.1 (8d0f1dd)
N           -3.14287331602766       -3.17368671072496        0.00159524422043
C           -2.73471694979519       -2.10081866327527       -0.00121043484193
C           -2.23541395866939       -0.79351789217337       -0.00009178562637
C           -2.94870514675459        0.36701373626609       -0.00019632325161
C           -2.03549343613264        1.49379927892473       -0.00064413515686
C           -2.44501516910761        2.83011083954334       -0.00175784227858
N           -2.81727884004162        3.91613157942042        0.00001877407399
C           -0.73445553479367        1.01268130338345       -0.00035253228252
N            0.41276722258572        1.72470542732842       -0.00073537601859
C            1.50309106790776        1.03237111870221       -0.00061757722728
N            2.76939646710102        1.53733737113548       -0.00080103107178
C            3.57890954982780        0.51214889585756       -0.00050910296106
C            2.86755806578002       -0.78691987837519       -0.00001572161016
C            1.55542104000464       -0.45874204493158       -0.00020966256874
C            0.32259371293290       -1.20001296374826        0.00010461142701
C            0.36187527077459       -2.61262009624657        0.00231037127593
N            0.46564485020181       -3.75388883127610       -0.00154029711079
C           -0.81150306254991       -0.44426038445937       -0.00000252405262
H            3.33141872757108       -1.75516853161525        0.00031497753415
N            4.90845060722942        0.62260204135173       -0.00051951523395
H            5.50103383379717       -0.18810765978047       -0.00027729352461
H            5.31199895640115        1.54393118275434       -0.00075721549889
H           -4.01917394614279        0.46114500683861       -0.00050674391517
