23
 energy: -42.459419325185 gnorm: 0.000697860545 xtb: 6.6.1 (8d0f1dd)
N           -2.83180566726228       -3.58697115049998        0.01613916181340
C           -2.47876430560023       -2.49363458789924        0.00987968049530
C           -2.05566280546917       -1.16161420767584        0.00490207945982
C           -2.94719485208210       -0.02364952572668        0.00858814317454
C           -2.20332443559644        1.11860943529836        0.00300778459743
C           -2.65767830805896        2.43979727025715        0.00613314779975
N           -3.00433168127780        3.53511422080634        0.00621070377929
C           -0.78634125792866        0.73944560631117       -0.00470010226542
C           -0.74313059106160       -0.70947772969150       -0.00297039901158
C            0.48975882742773       -1.41392363154719       -0.00981339764450
C            1.62532827153873       -0.66704106285317       -0.01685411823551
N            2.93473157801257       -1.10110611995558       -0.01768147919622
C            3.67527112995639       -0.02771897745412       -0.01729334753958
C            2.88351964345227        1.20897698446256       -0.01624265354483
C            1.58213254228642        0.79794687157815       -0.01584546563909
C            0.33714223559839        1.49590798961396       -0.01158319863471
H            0.31071132528066        2.57645130920875       -0.01348365355049
H            3.28100271793081        2.20613928372631       -0.01763708769974
N            5.02149445897751       -0.05137644633085       -0.06164348772850
H            5.54782312820679        0.78185869525662        0.13010606917434
H            5.47284933017811       -0.94446778759356        0.03445519308953
H            0.51051352625078       -2.49189583705746       -0.00946660915427
H           -4.01945693385998       -0.09518130453426        0.01525545756102
