24
 energy: -46.966691141213 gnorm: 0.000694695075 xtb: 6.6.1 (8d0f1dd)
N            2.24844984275280        3.95630366923482        0.01010630200602
C            2.16250502769579        2.81141447339600        0.00504059253609
C            2.09990373907319        1.41476055522960        0.00134077600940
C            3.25398827015542        0.55257360813821        0.00496920975858
C            2.83740233170068       -0.75011442749531        0.00116983484878
C            3.62360304201165       -1.90540501725020        0.00157067037617
N            4.23724945331106       -2.87640355235591        0.00682123360780
C            1.37508698150818       -0.76086237224145       -0.00439915903457
C            0.95346140106767        0.62074432491084       -0.00513778012880
N           -0.34015684110177        1.02088273420072       -0.01002093077524
C           -1.21236372416530        0.06780122655452       -0.01169488003183
C           -2.66188044744082        0.17416293780094       -0.01389136413687
C           -3.41498195162934        1.34549168960066       -0.00824999865834
N           -4.09348271770913        2.27397641276759        0.00147743003169
C           -3.17676940083005       -1.11388029049545       -0.01191501247167
C           -2.08115967690816       -2.05764958454733       -0.01087897963823
C           -0.89564219548738       -1.36644925273483       -0.00880735365464
C            0.46146049964409       -1.77292567281901       -0.00498497276462
H            0.74026530689424       -2.81764067428016       -0.00120408825204
H           -2.20528601534067       -3.12661963471543       -0.01305855210450
N           -4.47692668118760       -1.47075666917053       -0.04383106264991
H           -4.74363173514791       -2.43149482441971        0.07439971268603
H           -5.18271224261841       -0.75846744389967        0.02953333057674
H            4.27012594215175        0.90166207459112        0.00955483146396
