24
 energy: -46.970552317417 gnorm: 0.000502478701 xtb: 6.6.1 (8d0f1dd)
N           -3.06589139871875       -3.38299848311117        0.00205858787362
C           -2.46412043955438       -2.40392667113299        0.00116094943040
C           -1.77686847622458       -1.18928364038695        0.00137017782066
C           -2.43896850981322        0.10937286863325        0.00158581918132
C           -1.46133233197596        1.09196990442872        0.00145076135127
C           -1.70860958060731        2.46483334523619        0.00178561672141
N           -1.97460278087059        3.58303688062342        0.00134012984772
C           -0.16879307403066        0.44036974184508        0.00116686109378
C           -0.40370933748199       -0.99222724045761        0.00116335535419
C            0.66140721927287       -1.93178641462961        0.00094505645111
C            1.92237087345941       -1.42706932659272        0.00073807371489
N            3.12924881588226       -2.12324838584409        0.00048155683731
C            4.06111923435275       -1.23101001191852        0.00030167356352
C            3.54985441304572        0.13165968999834        0.00037279478057
C            2.18758586696986        0.00246176257920        0.00070483622155
C            1.10414397952343        0.94799278290934        0.00088297002733
C            1.39563929164499        2.32660899746898       -0.00019158611245
N            1.68501152072830        3.43648805183687        0.00191199810399
H            4.13697502961575        1.03010349496035        0.00026641632316
H            5.10021310917118       -1.50646783047368        0.00009305267358
H            0.46415863187335       -2.99247662368133        0.00092086963432
N           -3.77407968300349        0.26789162259382        0.00161587079273
H           -4.16703011362478        1.19291537498630        0.00232264362052
H           -4.38476914093418       -0.52980919917119        0.00249567369369
