22
 energy: -42.733601440873 gnorm: 0.000590927028 xtb: 6.6.1 (8d0f1dd)
N           -2.94356299663858       -3.53050571537811        0.00061882075722
C           -2.55214745401298       -2.45057563312851       -0.00000911197719
C           -2.08003285150250       -1.13497368532415        0.00035558994138
C           -2.93849162987295        0.03888366070635        0.00065834379603
C           -2.16089743262053        1.15172485344433        0.00011361759134
C           -2.56990797191605        2.48855915397620       -0.00114485894235
N           -2.87897653201218        3.59434521467696        0.00194266050962
C           -0.74769002632623        0.72428277688861       -0.00011815442790
C           -0.75513864000628       -0.73239796955398       -0.00006413897374
C            0.44594969456982       -1.48890350614089       -0.00056498995257
C            1.60669467530938       -0.78056764887222       -0.00094013192041
N            2.91467156858780       -1.18472254549996       -0.00140120218502
C            3.59811653326766       -0.07226631254395       -0.00158886127283
N            2.83892612865723        1.12091125306156       -0.00130550452900
C            1.61185178865589        0.69476606607392       -0.00090882174906
C            0.38904846199531        1.44945601088602       -0.00054160244451
H            0.41407744364244        2.52862532294205       -0.00056468172444
N            4.92828527301654        0.02476160072327       -0.00194081009501
H            5.35007915259541        0.93567533613570       -0.00226793118990
H            5.48652300180126       -0.80951658806801       -0.00235325030902
H            0.42151150981890       -2.56679075944297       -0.00063540455181
H           -4.01242880110934       -0.00151810676224        0.00079730614918
