23
 energy: -42.459420297425 gnorm: 0.000583381318 xtb: 6.6.1 (8d0f1dd)
N           -3.00532886896428       -3.53499295155896       -0.00839209287044
C           -2.65742389934860       -2.44017841879433       -0.00580970440116
C           -2.20315409616061       -1.11898259494884       -0.00311217923342
C           -2.94712066524908        0.02318260295487       -0.00852364725081
C           -2.05553779510243        1.16146236017246       -0.00459729883249
C           -2.47932240354066        2.49328123642256       -0.00970611287210
N           -2.83359788681005        3.58623082883186       -0.01470305587230
C           -0.74303082623964        0.70954826364909        0.00311349044005
C           -0.78614183840896       -0.73944421109587        0.00429298040321
C            0.33738637043332       -1.49571412689410        0.01057403093300
C            1.58251863370474       -0.79772140825354        0.01502437176494
C            2.88370730318207       -1.20873411575792        0.01505122672115
C            3.67564304778963        0.02802594459999        0.01725859568240
N            2.93507508729460        1.10165308162557        0.01847602605910
C            1.62563122076010        0.66730836706441        0.01705526748163
C            0.48986750240544        1.41396896139790        0.01030493142903
H            0.51085369492741        2.49197879579262        0.01056224963800
N            5.02164385392283        0.05177302472597        0.06048159312197
H            5.54892977798105       -0.78230611210160       -0.12514982439239
H            5.47344665683434        0.94493779573260       -0.03197384123867
H            3.28124086562493       -2.20597405813203        0.01543071496241
H            0.31070632503265       -2.57627696308182        0.01207571121931
H           -4.01940141696887        0.09463274484914       -0.01491962989241
