24
 energy: -51.756147765173 gnorm: 0.000804192220 xtb: 6.6.1 (8d0f1dd)
N           -4.45265794798850       -1.99042878635761       -0.00102437304670
C           -3.64256087772444       -1.17668122652420        0.00117845411979
C           -2.68959214769319       -0.15270692579263        0.00008006211602
C           -3.03655972808099        1.26460599444000        0.00028534688790
C           -1.90102541539896        2.00712906509746        0.00013170113895
C           -1.78534166368226        3.40208532431075        0.00101812125007
N           -1.69544992778389        4.54555350122826       -0.00051759315357
C           -0.75503147983787        1.07438165750479       -0.00042630263464
N            0.49477479283543        1.37472180122245       -0.00082193765085
C            1.33863789905416        0.31160904865230       -0.00109608595570
C            2.71721802733337        0.28249704831361       -0.00157327188495
C            3.65946371622651        1.30246644849883       -0.00240439592535
N            4.49956293041855        2.08776523896474       -0.00066075375403
C            3.05462526533186       -1.16766044094219       -0.00176096424714
N            1.99194181068266       -1.92390893604399       -0.00153331164909
C            0.91018749035987       -1.08827384819268       -0.00109997615136
C           -0.43112544920547       -1.39745850328982       -0.00071563397987
C           -0.91216777714623       -2.72406124103943       -0.00125305935434
N           -1.31005289334468       -3.79845065642267        0.00002744821600
C           -1.31373216458503       -0.27614453057375       -0.00035808866658
N            4.30692945569689       -1.62435362318472       -0.00219023368728
H            5.08884227621249       -0.99225182439273       -0.00231386058451
H            4.45819341248059       -2.61882777111695       -0.00233614094790
H           -4.04744975026094        1.62878841314010        0.00084369094518
