24
 energy: -42.179207278214 gnorm: 0.000597109068 xtb: 6.6.1 (8d0f1dd)
N           -2.90387377380542       -3.57738638229412        0.01872457293901
C           -2.58324764647487       -2.47378021262427        0.01463208907605
C           -2.16400480918195       -1.14179290615547        0.00811465502125
C           -2.96560063650799       -0.01657910379001        0.01709796392667
C           -2.12843604684795        1.13156682653040        0.00796909788755
C           -2.56959491734020        2.45673123754403        0.01500856409759
N           -2.91999053576695        3.55128798395304        0.02479413122607
C           -0.78381155474179        0.71139922516149       -0.00698946528337
C           -0.78111395354517       -0.71597406882627       -0.00691626796370
C            0.39579094627766       -1.43698408589056       -0.01683000075276
C            1.58943147310664       -0.70822772668808       -0.02659694037967
C            2.92555208505917       -1.12357611702600       -0.03329756682251
C            3.76477819254105        0.02496941608143       -0.03616917960745
C            2.96666420856220        1.15334928451013       -0.03463996087875
C            1.58967112675146        0.73575286931361       -0.02860083877679
C            0.42302668096602        1.44899465100046       -0.01922687625126
H            0.40306539851473        2.52928893250022       -0.02060554498671
H            3.30257916426234        2.17313862120465       -0.03887565522855
N            5.13420720071831       -0.01965122776931       -0.11567742165718
H            5.62468149174724        0.82382250710330        0.13241606628036
H            5.57659595808251       -0.87111872923761        0.18862204746568
H            3.27245954650248       -2.14162879856101       -0.03564964638488
H            0.39628564636608       -2.51785257626371       -0.01632265538256
H           -4.03963380464568        0.00168193762364        0.02918790933596
