22
 energy: -43.522036851383 gnorm: 0.000577592035 xtb: 6.6.1 (8d0f1dd)
N            1.70597262441396        3.78250780972491       -0.00126800308751
C            1.59576671975763        2.64017076834819        0.00205153828925
C            1.52077329942648        1.24190664113300        0.00041138640826
C            2.66998087970891        0.38526303499331        0.00027992689358
C            2.24535040033325       -0.91854148062913        0.00003987204111
C            3.03314031102634       -2.07400894970127        0.00034508227598
N            3.65233522643467       -3.04063416956587       -0.00031372973037
C            0.78613035121244       -0.92585901143292       -0.00013188478574
C            0.36871159399197        0.44870024796164       -0.00002240561378
C           -1.01586713110791        0.79572394444614       -0.00004892500604
C           -1.43222039877022        2.14513186156401       -0.00005887475810
N           -1.76261942437895        3.24197038247782        0.00038279720225
C           -1.91146555129949       -0.24782717583487       -0.00026781008641
N           -3.29082705653551       -0.18642121191656       -0.00041522198055
C           -3.71172505107152       -1.41569661584878       -0.00055357058362
C           -2.64061171122762       -2.37785362701896       -0.00052194952231
C           -1.47564744582448       -1.63278141754971       -0.00036726632218
C           -0.10110639403943       -1.96472937789848       -0.00028498498850
H            0.22337929710366       -2.99553016659985       -0.00035355047671
H           -2.74601716635558       -3.44570613312466       -0.00062683566585
H           -4.76263268593557       -1.63998887810279       -0.00067206936501
H            3.68707003493692        0.73049172137480        0.00065855606225
