24
 energy: -46.981803228932 gnorm: 0.000562328514 xtb: 6.6.1 (8d0f1dd)
N            4.06467181593951        3.00185804863664       -0.00119786758164
C            3.46075668296971        2.02473409020457       -0.00008380483805
C            2.72748273679664        0.83493142068718       -0.00016391070508
C            3.31371853817723       -0.48652979084109        0.00013488869852
C            2.31250604510631       -1.41109703016362        0.00034165523251
C            2.43025867903899       -2.80400302586191        0.00163268294741
N            2.49939617279020       -3.95030872101353       -0.00072510907209
C            1.02956505647912       -0.69509780809805       -0.00010707102348
C            1.34159792794116        0.71774813067619       -0.00033572284387
C            0.32263966069494        1.70323297796846       -0.00052683521173
C           -0.96493763117042        1.25781445520855       -0.00054744605590
N           -2.12448025320783        2.00291106565034       -0.00090301316484
C           -3.11495085041336        1.16178699560333       -0.00094686110875
C           -2.65122147930704       -0.24976482375036       -0.00069770425979
C           -3.49316247937216       -1.35360855251939       -0.00138343483596
N           -4.23568546236428       -2.23275057853849       -0.00065330557388
C           -1.27361495563769       -0.16733655526234       -0.00035344678415
C           -0.24660166544613       -1.15385820601097       -0.00007635750335
H           -0.49149693687768       -2.20656073960811        0.00010336977019
N           -4.41025657426956        1.50364796548180       -0.00009014409626
H           -4.65278591172568        2.47825011304383       -0.00307958694578
H           -5.12952798800409        0.80292997281611       -0.00461553573363
H            0.56510354950611        2.75360649700105       -0.00066083021091
H            4.37066122025601       -0.67977490511024        0.00052426140051
