22
 energy: -47.513443350617 gnorm: 0.000767095885 xtb: 6.6.1 (8d0f1dd)
N            3.00300075678172        3.25786407448898        0.00070630296240
C            2.63315196033564        2.17158430477368       -0.00112396505127
C            2.19076219850766        0.84369958440059       -0.00050652495489
C            2.95313245866104       -0.28181791470428        0.00114992449930
C            2.08752978873998       -1.45012507750428        0.00117811840036
C            2.55280898274887       -2.76696445706263        0.00413951284360
N            2.96814105355565       -3.83761004973505        0.00344621210208
C            0.76503625509169       -1.02679197255489       -0.00198926962491
N           -0.34601454417346       -1.78705586696037       -0.00181295407968
C           -1.46787506780177       -1.14358625212486        0.00096753649257
N           -2.72726384428280       -1.62777893349331       -0.00023442038944
C           -3.49592370902314       -0.56426317230814       -0.00123853076037
N           -2.82869942120186        0.68342678161478       -0.00386948936228
C           -1.57949574330458        0.35272675195650        0.00082382393824
C           -0.38207059633814        1.15054667108165        0.00100626245318
C           -0.46605102161225        2.56065482821459        0.00622517929065
N           -0.56760675326164        3.70149599044308        0.00426957668685
C            0.77619471306783        0.43152804201108       -0.00210712337596
N           -4.82056639196796       -0.57424517556200       -0.00226216546467
H           -5.31617272381081        0.30084307765734       -0.00331075805056
H           -5.30782009332167       -1.45390111384995       -0.00179490684165
H            4.02646194351749       -0.33129454427952        0.00239945298250
