24
 energy: -51.759223750472 gnorm: 0.000625578285 xtb: 6.6.1 (8d0f1dd)
N           -2.58634364337335       -3.76614405944066       -0.00101568548426
C           -2.47775600761875       -2.62383878810517       -0.00005637277324
C           -2.34770107684415       -1.23016685277946        0.00039446392404
C           -3.34793944243994       -0.30519993202265        0.00087914827791
C           -2.77202355215975        1.02480321498627        0.00136109711508
C           -3.52163346396425        2.20389705628876        0.00201049801632
N           -4.16607269210789        3.15426176953251        0.00257847915439
C           -1.38593006041082        0.91033954013574        0.00111312283397
N           -0.47411748649130        1.90232151576762        0.00146407149819
C            0.76383158478802        1.52969726715635        0.00136795959698
N            1.84360887629193        2.36257899138417        0.00161977680651
C            2.90735481337441        1.61486683224615        0.00121466706188
C            2.57639020909079        0.15343409266143        0.00057240855335
C            3.53531734545678       -0.85383969111856       -0.00034079715501
N            4.38706505831049       -1.62611030741534        0.00034612541173
C            1.20932568657901        0.11381816180017        0.00086976485587
C            0.22961212591118       -0.93281659732734        0.00053276897573
C            0.63386793607851       -2.28846249133107       -0.00025780658870
N            1.00133402341845       -3.37327220203408        0.00042524066628
C           -1.06877054170244       -0.50878626527065        0.00055559258223
N            4.15798815400457        2.07000122571234        0.00127627967207
H            4.30812307488732        3.06487863101552        0.00165643802218
H            4.94084128733545        1.43843535630470        0.00095682522406
H           -4.40394495269786       -0.50331112532098        0.00093652342275
