21
 energy: -43.786497840953 gnorm: 0.000947965814 xtb: 6.6.1 (8d0f1dd)
N            1.41553314937245        4.12989966372394       -0.00112863643322
C            1.53344067474157        2.98840290271029        0.00201896042406
C            1.68787684335313        1.59824340333963        0.00054559942400
C            2.85902507424058        0.89359707206726        0.00048760764235
C            2.56201832838152       -0.51661196793306        0.00028088637178
C            3.52151416859358       -1.53341028238476        0.00065284146050
N            4.30248702860999       -2.37528882410555        0.00002700710537
C            1.17641727267954       -0.69139782820813       -0.00006314396253
C            0.58062628867027        0.63063967941330       -0.00005710510097
N           -0.68987371128404        0.87703862908019       -0.00026084564121
C           -1.48396911424251       -0.20848399551877       -0.00057210756180
C           -2.87903967919105       -0.30989407250156       -0.00077065604136
C           -3.83792915978145        0.69730671119312       -0.00054717816561
N           -4.65509073997362        1.50582745592380       -0.00159240736418
C           -3.14327391139252       -1.74081914569860       -0.00105431074640
N           -2.06374649953256       -2.45084020485068       -0.00102510413688
C           -0.99494411691643       -1.57316721077621       -0.00063755973631
C            0.34732284575601       -1.83432411215283       -0.00030708499518
H            0.74960300235649       -2.83610387357890       -0.00017509614403
H           -4.11932230227392       -2.19025820235287       -0.00132209822839
H            3.85287266223301        1.30191663851052        0.00097945162995
