22
 energy: -42.726506427128 gnorm: 0.000626703584 xtb: 6.6.1 (8d0f1dd)
N           -2.65160813416406       -3.64716891628399        0.00251336398421
C           -2.31333137947655       -2.54979477280571       -0.00054344585131
C           -1.94814414273481       -1.20058804375384        0.00026582972805
C           -2.90003468268145       -0.10726226367529       -0.00058238409876
C           -2.22632612550451        1.07575191152066       -0.00099744673795
C           -2.74884161606292        2.37150962756925       -0.00333699864076
N           -3.13827601875521        3.45220985365475       -0.00047577531669
C           -0.78795287782510        0.77883529841455        0.00014356854186
C           -0.66510948167404       -0.67367791668398        0.00090978167974
N            0.51012913551763       -1.34261307343715        0.00166550223852
C            1.56835866916993       -0.60280059351207        0.00191969963344
N            2.85622780685570       -1.05931412987906        0.00287916974474
C            3.62144557736991       -0.00204064796518        0.00294385033454
C            2.85822331443188        1.26568295180269        0.00192364334528
C            1.55687473783403        0.89107730875136        0.00128946129515
C            0.30462137356410        1.57666815230013        0.00026890447827
H            0.25308802484894        2.65724716652303       -0.00028069105513
H            3.28914174047440        2.24914158182891        0.00171195784481
N            4.95644976012146       -0.05791851669827        0.00329464163404
H            5.51535531252639        0.77595641674523        0.00558964364050
H            5.39828928263226       -0.96107193029180        0.00505314255149
H           -3.96662639556797       -0.24016700722418       -0.00143443857405
