25
 energy: -51.494223752270 gnorm: 0.000523094005 xtb: 6.6.1 (8d0f1dd)
N            2.51574072577869        3.77451545373396       -0.00060667354918
C            2.42730013134409        2.63042616990526       -0.00013381823303
C            2.33997827482244        1.23342166858060       -0.00017075497841
C            3.37873413513685        0.34918295075976       -0.00014517193053
C            2.84938326274511       -0.99550150951039       -0.00000214725084
C            3.62899217658411       -2.15526684413429        0.00024442012040
N            4.26881913924160       -3.10915707091758        0.00005708098628
C            1.45867198589037       -0.93670167922092        0.00008324940847
C            1.09188008385072        0.46236364308667        0.00000245412306
C           -0.21597966415425        0.86039920716044        0.00010566154586
C           -0.62623985914859        2.21232478152426        0.00018007119155
N           -0.99533464878074        3.29674556202496       -0.00057994405592
C           -1.20388406667087       -0.18019199430000        0.00030131083622
C           -2.58247545107226       -0.16077010458772        0.00034662692465
C           -3.49292782826748        0.88893500594095       -0.00012256364280
N           -4.31615097026746        1.69219767866594        0.00139464974776
C           -2.97483693763775       -1.59523851719794        0.00066405909220
N           -1.94212326210082       -2.38533464421967        0.00064596324147
C           -0.82246767584204       -1.58528492208196        0.00037953148936
C            0.48690413840642       -1.96619709679500        0.00027517630018
H            0.77841802735031       -3.00386153277450        0.00032927591798
N           -4.25005568658545       -1.99990467738097        0.00054420591781
H           -4.44486219309569       -2.98544521863742        0.00136398028920
H           -5.00290055863285       -1.33481433726460        0.00166829877157
H            4.42588893570553        0.58892123504020       -0.00017337816332
