20
 energy: -39.269707805539 gnorm: 0.000835610974 xtb: 6.6.1 (8d0f1dd)
N           -2.28656407140184       -3.64793136612428       -0.00033967326849
C           -1.96064515641976       -2.54749520114722        0.00032530813689
C           -1.60267974773105       -1.19557197636994        0.00044725224643
C           -2.54241105700492       -0.10795576058687       -0.00003477959760
C           -1.85516499567295        1.07605162107311       -0.00011972689396
C           -2.37934693328527        2.37196767699367       -0.00007055410981
N           -2.77327622674445        3.45046516485484       -0.00076262876219
C           -0.42335318219758        0.77470418218046       -0.00012685146162
C           -0.30835322393468       -0.66648213682085        0.00020621991806
N            0.86184979292932       -1.33839431139988        0.00035369551272
C            1.91849228925468       -0.59769953394224        0.00040136205179
N            3.22625110994222       -1.06533436418745        0.00054983555856
C            3.98396708428823       -0.02173599462412        0.00050100533839
C            3.24419380907127        1.23345957185635        0.00042076895108
C            1.92242486116036        0.87566407162032        0.00025907542042
C            0.68316536482519        1.56852360955831       -0.00000240023982
H            0.63602679306938        2.64899865804600        0.00008447593192
H            3.67561861149372        2.21662207912429        0.00052418260056
H            5.05551954695451       -0.11113912537120        0.00045844323747
H           -3.61010007439634       -0.22879959953327       -0.00023389347083
