23
 energy: -47.233307814608 gnorm: 0.000851066691 xtb: 6.6.1 (8d0f1dd)
N           -4.14594594839171       -2.93409991919898       -0.01740229996321
C           -3.53051445166685       -1.96522520899958       -0.01988926798225
C           -2.77842139771192       -0.78596109190151        0.01139801444617
C           -3.24458847924601        0.50717420019844       -0.02304596957972
C           -2.13794322904410        1.41189968159626       -0.08372280353657
C           -2.22009749058193        2.79768931016653        0.07727451094224
N           -2.31382705697390        3.93746606767460        0.17965240882352
C           -0.96000693718296        0.67485956184058       -0.21204878407926
C           -1.33530513148271       -0.74044181197729       -0.05457157091502
N           -0.42440900222699       -1.61637042938173        0.21344465869988
C            0.84922198598371       -1.29435699999159        0.15707296992281
C            2.01018189982361       -2.02779871702450        0.07047424711019
C            3.12531211778337       -1.13166672040549        0.02585202384839
C            2.65782156648869        0.18941297861462       -0.02501548869459
C            3.45633295672561        1.33257212008437        0.00323283813665
N            4.16417740902286        2.23805895734307        0.00772662219017
C            1.23582296319324        0.14731048143930       -0.00077448309109
N            0.31671713456536        1.01558906740790       -0.22883079129162
N            4.41186955329693       -1.51502148091534       -0.01313695847236
H            5.14027539928881       -0.82234669510880       -0.02727895076516
H            4.65847918827983       -2.48652519012286        0.04347722761603
H            2.06439302977586       -3.08964850724495       -0.08079688447246
H           -4.27432384241919        0.81107719520730        0.00623607300696
