26
 energy: -51.222202504442 gnorm: 0.000781268888 xtb: 6.6.1 (8d0f1dd)
N           -4.92574888467219       -1.99034770906570        0.00378620177469
C           -4.22900747325951       -1.07654834086563       -0.00249587037461
C           -3.36210916691715        0.01677887009346        0.00028998387940
C           -3.69711082652874        1.35830507501091        0.00123451116133
C           -2.51238492467351        2.12557972264297        0.00132697880494
C           -1.41664243868058        1.26051781895308        0.00082812695817
C           -1.90941536513059       -0.08338788255499        0.00050426131686
C           -1.07366455472748       -1.17131885389737       -0.00007365416869
C            0.30784673831393       -0.91174791867574       -0.00019248935266
C            1.40709576212708       -1.79207187017148       -0.00060036007624
C            1.36679992275266       -3.18503053418388       -0.00084050135163
N            1.36620554745383       -4.33486237005796        0.00082558264527
C            2.61911420532250       -1.01930000885274       -0.00053717423988
C            2.26944303927251        0.33451133161894       -0.00021510397608
C            3.18147396382001        1.38758763786334        0.00013860311238
N            3.98047384985540        2.21471536223208        0.00169751642431
C            0.82895833115635        0.42744004256260        0.00004597753909
C           -0.01728995146253        1.51949010831845        0.00048109456420
C            0.44775943500332        2.85101706381072        0.00035952056542
N            0.78322247523087        3.94732758602504        0.00130683756844
N            3.86090581570983       -1.53858292951440       -0.00311605812162
H            4.65946903716327       -0.92927430125081        0.00252910692420
H            3.99783580500535       -2.53338740463624        0.00333432548752
H           -1.44632360682011       -2.18557423929239       -0.00038633408189
H           -2.46580329939902        3.19977553561130        0.00155257811201
H           -4.69547506771554        1.75410673017642        0.00114746780509
