25
 energy: -46.701708402703 gnorm: 0.000601188638 xtb: 6.6.1 (8d0f1dd)
N            3.76150757140604        3.14244961759465        0.01405935758896
C            3.35052948384376        2.06894454991243        0.00937039103036
C            2.85235012786254        0.76571172645053        0.00484879902180
C            3.65480261510934       -0.42977389811204        0.01143761737203
C            2.83017702333583       -1.51125135027739        0.00607169480149
C            1.46579815943533       -1.03998410709359       -0.00390101496514
C            1.50136250536248        0.39539563068360       -0.00501848679267
C            0.31863703905710        1.17019592148670       -0.01353854608708
C           -0.86767760020698        0.49319834144435       -0.01882733856718
C           -2.24304320018389        0.95844663823961       -0.02284926001837
C           -2.65700391391435        2.28445844822730       -0.01115208301287
N           -3.02549455109850        3.37509277751589        0.00878907192348
C           -3.07930515112410       -0.16239394109078       -0.02377857409693
C           -2.26569801179714       -1.32984076833419       -0.02096383397785
C           -0.92855251859336       -0.94541211564083       -0.01659361658225
C            0.26155806233360       -1.71830379697681       -0.00930240585155
C            0.19563300388750       -3.12718911971518       -0.00528447094028
N            0.12996464710765       -4.27214160208843       -0.00066079359427
H           -2.63538342223537       -2.33973933018595       -0.02195413774355
N           -4.43429534496332       -0.15761762165909       -0.08338485085359
H           -4.91730377124315        0.71162924420299        0.06757408582627
H           -4.93290870565167       -1.00619699200037        0.11857918759638
H            0.36592564936282        2.24943183167371       -0.01545222492344
H            3.11756762082882       -2.54617362517576        0.00867945024969
H            4.72851916967896       -0.43051473258135        0.01943959319657
