25
 energy: -46.706528038954 gnorm: 0.000491961181 xtb: 6.6.1 (8d0f1dd)
N           -4.75519824944390       -1.92104464292037       -0.00857482023229
C           -4.10601811292063       -0.97243144112599       -0.00558353583719
C           -3.30208909922425        0.16742053397631       -0.00315233810827
C           -3.71725514066244        1.48781689694614       -0.00820672809946
C           -2.58161280843224        2.32223241684965       -0.00405317252522
C           -1.43110009879491        1.52738999910961        0.00354432347494
C           -1.84821569339071        0.15579527204637        0.00439005993362
C           -0.94944759476102       -0.88148468389065        0.00989784376857
C            0.41289192323251       -0.53641515142117        0.01452758774656
C            1.57006169036373       -1.34388271864325        0.01799476685632
C            1.62170371762294       -2.73609335768340        0.00767427731643
N            1.69621439070797       -3.88372432135419       -0.00954853250930
C            2.72638278337471       -0.49516159585890        0.01955515398146
C            2.28766649717897        0.83123380416410        0.01605923458458
C            3.10163012526054        1.95826882113251        0.00352193156423
N            3.78611908313886        2.88356290332399       -0.01438188838894
C            0.83865533733266        0.83238233744191        0.01381041256597
C           -0.06228507054919        1.86628861070081        0.00846818352563
H            0.25661697020561        2.89836751513573        0.00730407800582
N            4.00420459149831       -0.93345619774021        0.06881935028359
H            4.75325398603612       -0.27493422007051       -0.05550653783771
H            4.19794690397176       -1.90985081243690       -0.07001418989865
H           -1.26203972041990       -1.91614102142946        0.01013569024658
H           -2.60416465980676        3.39712567262010       -0.00654043566797
H           -4.73836809561879        1.82124552302774       -0.01444891124918
