21
 energy: -43.000545668839 gnorm: 0.000907874447 xtb: 6.6.1 (8d0f1dd)
N           -3.00043227025306       -3.52196825673519        0.03595498706477
C           -2.61215418302039       -2.44169485978655        0.01443516791473
C           -2.14137304764538       -1.12499768798765        0.02539258098244
C           -2.88900172121259        0.03684505863108       -0.02493725588812
C           -2.02108906335796        1.15961382077044       -0.09298507441808
C           -2.40518926226181        2.49673035259258        0.03459038752575
N           -2.75018916930284        3.58918888474823        0.11520161058980
C           -0.70222386021674        0.70647724908732       -0.20819187665383
C           -0.75781443952977       -0.76514244984202       -0.05895347222586
N            0.34523929347219       -1.38929313541235        0.18884757613233
C            1.51183971953485       -0.83991098968130        0.12843969564550
C            2.82506075092850       -1.21796854271432       -0.00437607959359
C            3.59449547969718       -0.01905352427416        0.02775196431007
N            2.82852680145449        1.08022259395571        0.05675281582389
C            1.57001704077430        0.71036069702139        0.05251966045809
N            0.46407978161892        1.30635438683733       -0.16323817279942
N            4.92978593245407        0.06772995354916       -0.00985960265013
H            5.35851631832024        0.97386571940447        0.05450770315903
H            5.49793511385410       -0.75895884842634       -0.02334573604389
H            3.18521365602977       -2.21597065347714       -0.15599742269734
H           -3.96096841523750        0.09635148453902        0.00408711736391
