24
 energy: -47.775033746856 gnorm: 0.000463882692 xtb: 6.6.1 (8d0f1dd)
N           -4.67744313579545       -0.76194821502691        0.00032341483539
C           -3.80380402524720       -0.01618015827517       -0.00014258244712
C           -2.76900992727062        0.92166722864300        0.00009584887724
C           -2.93302317755077        2.31478434916651        0.00025142342327
C           -1.68207211024350        2.91692309952358        0.00031282360920
C           -0.68600389298075        1.90633440579391        0.00023155527240
C           -1.36039836305342        0.64181047504278        0.00014492511611
C           -0.65585639831554       -0.56106192228315        0.00006461545915
C           -1.31673077566734       -1.81083430479308       -0.00012705547601
N           -1.85098312131638       -2.82396388090245       -0.00020280115776
C            0.74682724327518       -0.47666279256128        0.00008235280521
C            1.75765895653944       -1.48465201248180       -0.00000322639950
C            1.55966881839560       -2.86954860804799       -0.00008991670412
N            1.43193659845792       -4.01034083854814       -0.00014738887713
C            3.01169344960729       -0.85421179532241        0.00004508012246
C            2.81689158339588        0.52750131906226        0.00010971593158
C            3.80953588540250        1.51112585222601        0.00000069364828
N            4.60567499924759        2.33895641111996        0.00032899447413
C            1.40587116506265        0.78965142210520        0.00015328975892
C            0.70226381092627        1.98536007508552        0.00022482903559
H            1.21463681884855        2.93649206548949        0.00029108084555
H            3.96083489986692       -1.35686328308472       -0.00000122650691
H           -1.49210363519178        3.97453067739955        0.00041071244473
H           -3.88120836779305        2.81900215956932        0.00027760920934
