21
 energy: -39.003239563630 gnorm: 0.000498649721 xtb: 6.6.1 (8d0f1dd)
N           -3.82210224133003       -1.36818249216203        0.00105966388699
C           -3.01543756723557       -0.55051133796982        0.00024015263362
C           -2.08136224428911        0.48938855612148        0.00058734758503
C           -2.43738623262810        1.88764320823602        0.00112110559449
C           -1.30159340140854        2.62907947061747        0.00107748662688
C           -0.16344109390796        1.73089205133900        0.00048862746001
C           -0.68892110534027        0.38896806607381        0.00021914111903
C            0.17426038711159       -0.74522573816414       -0.00037850765806
C           -0.34185128386251       -2.05942651132885       -0.00069467141271
N           -0.76597284486881       -3.12380863024608       -0.00056947858425
C            1.52671423364174       -0.49099346724115       -0.00065624106322
N            2.56552685389133       -1.39894840570894       -0.00119320267390
C            3.66118851906739       -0.69848222981025       -0.00131385311711
C            3.42283555637316        0.72006091237843       -0.00085986958705
C            2.04861323899937        0.86342887536270       -0.00040756503998
C            1.17850379825724        1.98063215462396        0.00015598211923
H            1.57580064988504        2.98555956451662        0.00026782070276
H            4.17183844206252        1.48865328176389       -0.00087914928611
H            4.62306718286191       -1.17802211459018       -0.00172647410940
H           -1.22930216807880        3.70042483334606        0.00134924712996
H           -3.45070035980159        2.24307891254201        0.00144579697381
