19
 energy: -39.551720284797 gnorm: 0.000368400547 xtb: 6.6.1 (8d0f1dd)
N           -2.58666841799394       -3.53397786177212        0.01969844261917
C           -2.20997330822854       -2.45010827338660        0.00418274551833
C           -1.76056570746941       -1.12583520262659       -0.03907744864886
C           -2.53884847063604        0.03495503842436        0.00150430933808
C           -1.71153091311584        1.16502141701398        0.03968817037289
C           -2.11803548079018        2.50358641253264       -0.00430253096506
N           -2.47471860837167        3.59385143868666       -0.02134339005870
C           -0.36949089638759        0.74688070453390        0.04103720859057
N            0.79122805134746        1.30814100234966        0.07698199317924
C            1.93134384040440        0.76264221879800        0.00707142846448
N            3.17407788152560        1.07731346707830       -0.03342694340007
C            3.96680179636312       -0.00863061867885       -0.00689059005034
C            3.25062171450928       -1.18802902238998        0.01100932822763
C            1.89993629163046       -0.85389914248649       -0.01125524447618
N            0.74176201806330       -1.33908455935054       -0.08446830653921
C           -0.40253523360210       -0.75449123838602       -0.04450312403845
H            3.61694131557604       -2.19479852851158        0.06095374867842
H            5.03221722694355        0.11705144821800       -0.01579427374786
H           -3.61228732026790        0.05812436795323        0.00356197893595
