22
 energy: -42.710637753624 gnorm: 0.000582294806 xtb: 6.6.1 (8d0f1dd)
N            2.85168822847042        3.52975734896701       -0.21571604072418
C            2.48396492160145        2.44768056571437       -0.09940478436990
C            2.05749303474543        1.12891235025537        0.07253720868969
C            2.89706132582799       -0.02702514043493        0.00921851078119
C            2.11678359558469       -1.15950296797914       -0.00994489834821
C            2.54679424359424       -2.48941982288712        0.02555706377442
N            2.90028794854403       -3.58195622035755        0.02849869506480
C            0.73377939558177       -0.74792522557769        0.06812676493592
C            0.73189016027961        0.71675044253578        0.21764655980323
N           -0.41381212268609        1.37434123866143        0.25028924291679
C           -1.53271561542868        0.77647357326825        0.03123676625802
C           -2.88217672687614        1.18129704899704        0.06485200895655
C           -3.66855991289671        0.04704544696019       -0.00531924366371
C           -2.82829750916128       -1.12240559280946       -0.05905791967776
C           -1.51959079787782       -0.72204857535825       -0.14602743214838
N           -0.37155915608259       -1.35868641587600       -0.20826960191025
H           -3.16222645731718       -2.12985601440802        0.10654632511581
N           -5.01933998796759       -0.01679623232739        0.06539028452558
H           -5.54993297903791        0.83097154706333       -0.03193281316538
H           -5.47938803044741       -0.88292605153261       -0.15261482331871
H           -3.21241184130778        2.20113328318238        0.05168628952027
H            3.96992175475767        0.00438857854264       -0.03195732521577
