25
 energy: -46.698225118497 gnorm: 0.000740047283 xtb: 6.6.1 (8d0f1dd)
N            3.97509305398909        2.17291865468964        0.01830025689481
C            3.43324614155718        1.15996842709278        0.01265136276086
C            2.83006769217554       -0.10004309717249        0.00695521260837
C            3.56365093867729       -1.34237240932353        0.01148846462579
C            2.68032297177331       -2.37256301000155        0.00572499283016
C            1.33914504244575       -1.82868459674044       -0.00246531342952
C            1.46595981701001       -0.39688259715174       -0.00196998583669
C            0.31248913127372        0.44432479018168       -0.00968363453986
C            0.44460950134477        1.84975333840110       -0.01197503549597
N            0.55691990369417        2.99036290519408       -0.01246574608672
C           -0.91561300217266       -0.17539091924959       -0.01550658079286
C           -2.26163099312188        0.35390842874676       -0.01983331517135
C           -2.64771122335134        1.69115174124701       -0.00802852832700
N           -3.03997838033002        2.77259796224977        0.01102759029415
C           -3.14399683143580       -0.72830148383361       -0.02121015329040
C           -2.38117370050672       -1.93527154309736       -0.01869104391921
C           -1.03087704248574       -1.61696169213083       -0.01398769281034
C            0.11471915482711       -2.44021599445611       -0.00785174209705
H            0.01431592678566       -3.51588737892135       -0.00681894522062
H           -2.80253694849056       -2.92446571169861       -0.02090992550007
N           -4.49606458287041       -0.66392552561712       -0.07652264933086
H           -5.03831035806950       -1.48722590718061        0.11617638397147
H           -4.93873053243914        0.22999568307725        0.05346951712293
H            2.91234448837885       -3.42104130085903        0.00675323059342
H            4.63586806264128       -1.40011583044612        0.01838353794655
