20
 energy: -39.269707675689 gnorm: 0.000506712707 xtb: 6.6.1 (8d0f1dd)
N           -2.77316712339578       -3.45102947037020        0.00004701071709
C           -2.37858432585402       -2.37264668666168       -0.00090477173650
C           -1.85486110532304       -1.07650761045809       -0.00037904731873
C           -2.54238200136237        0.10724424635795        0.00019123919757
C           -1.60287890445954        1.19518494766711        0.00045086067102
C           -1.96167077903104        2.54694071142384        0.00192471400934
N           -2.28859073436338        3.64734664309549       -0.00060821000146
C           -0.30855895739721        0.66633910628691       -0.00003267175137
N            0.86149937214248        1.33874878185999        0.00001550264936
C            1.91809691270471        0.59820120684643       -0.00066392146891
N            3.22596378274200        1.06601711693794       -0.00089399397816
C            3.98373528985664        0.02261696315167       -0.00135129360696
C            3.24434707038386       -1.23266408103978       -0.00147823970699
C            1.92254328070766       -0.87506871778297       -0.00120156986858
C            0.68360623126545       -1.56831265422689       -0.00114140870499
C           -0.42314131512729       -0.77482947089337       -0.00045280665177
H            0.63661102905060       -2.64880855958048       -0.00176092236696
H            3.67609671799952       -2.21565594847905       -0.00170803662494
H            5.05525047715626        0.11201957054575       -0.00160893232336
H           -3.61007414929549        0.22787317421939        0.00052519326529
