22
 energy: -47.520886072405 gnorm: 0.000857913026 xtb: 6.6.1 (8d0f1dd)
N           -4.02348695861202       -2.95545652816838        0.06844857247351
C           -3.41043694395653       -1.98764172804690       -0.00160719514153
C           -2.69231075419654       -0.79387307996035       -0.11728384651646
C           -3.23737368478668        0.51621686410567       -0.03405229091919
C           -2.21310832510826        1.44081448544097        0.04123967108642
C           -2.32608529423857        2.83620608386036        0.04519149680229
N           -2.42696458641610        3.97863034902895        0.07880603218589
C           -0.97132450693947        0.73364582686879       -0.03667596467343
C           -1.30044800882402       -0.70104208313979       -0.21630240983778
N           -0.33175507614864       -1.58344022423762       -0.17917913941005
C            0.89042703187441       -1.29726959750915        0.05153286133285
N            2.00678623684788       -1.99610287621861        0.05843879287973
C            3.04063238324622       -1.15577667916863        0.06292880906201
C            2.61588511919549        0.22411517331778        0.04531316618320
C            3.45364533716648        1.32565904240221       -0.11647648089728
N            4.20470707356889        2.18710431988494       -0.23336087777864
C            1.23157435319419        0.19956016718552        0.15322933698240
N            0.25797063179025        1.04123685411763        0.20720772796422
N            4.30634092766748       -1.57314572980870        0.05363255308663
H            5.06126287307346       -0.91016533970284        0.02297165946758
H            4.49699147267122       -2.56002518617059        0.06430543995977
H           -4.28777682606650        0.73862949971885       -0.01228651009163
