22
 energy: -42.721408768316 gnorm: 0.000706685815 xtb: 6.6.1 (8d0f1dd)
N            3.00046652832195        3.50698647046485       -0.00190548003948
C            2.58732976782931        2.43482578579480        0.00281097233608
C            2.08113368085976        1.13278394994134        0.00071543840230
C            2.90640901670390       -0.06735107618911        0.00100863946878
C            2.10882969426965       -1.16655717469742        0.00051901880000
C            2.50102144026573       -2.50880700259970        0.00111335928831
N            2.82430315033534       -3.61024970732505        0.00050260204986
C            0.70791697413484       -0.70343186707511       -0.00023455328330
N           -0.35246864923505       -1.42489684887351       -0.00069341778011
C           -1.52265353109678       -0.71840286105835       -0.00127406386426
C           -2.80853903376213       -1.16637268286995       -0.00172481856474
C           -3.62707361140215        0.05971378241575       -0.00265773081686
N           -2.91324191625934        1.15264074822124       -0.00257956999995
C           -1.59652788676816        0.74994350444843       -0.00157968219804
C           -0.46005125039307        1.50097269731248       -0.00101370887709
C            0.74937501132081        0.76533300975732       -0.00032714478014
H           -0.46728664521547        2.57962112992195       -0.00104320586669
N           -4.96761884766913        0.04979699984040       -0.00109008629007
H           -5.45625909191029        0.92768088210099       -0.00729408512891
H           -5.48107110065826       -0.81203760287956       -0.01120685042986
H           -3.17407950528228       -2.17421572647873       -0.00141749100536
H            3.98135357911083       -0.05230437797302        0.00193853657950
