19
 energy: -34.750372183936 gnorm: 0.000255130777 xtb: 6.6.1 (8d0f1dd)
N            3.64499976455541        2.04448240931301        0.00032320060572
C            2.93331250049988        1.14258294795195        0.00030819368526
C            2.10606093302785        0.01815405244621        0.00052335572871
C            2.58287883868872       -1.34933571992070        0.00055495091596
C            1.52243766531014       -2.19055277680217        0.00067319149409
C            0.30413081017976       -1.39749080907666        0.00067276857718
C            0.71100956351004       -0.00556402866824        0.00060924985916
N           -0.13589639090992        1.04438642265304        0.00060507743560
C           -1.38958677739675        0.73500926242904        0.00066572514135
N           -2.44005045096211        1.64248581640040        0.00069290843915
C           -3.52302282958192        0.93993427776278        0.00074667429919
C           -3.28463078333518       -0.49520375209742        0.00076828289439
C           -1.92347267006783       -0.63750528104886        0.00071422430610
C           -1.01547551829734       -1.73076739728243        0.00071169385298
H           -1.36848261842726       -2.75327367317059        0.00074988668840
H           -4.04196859235844       -1.25649456746718        0.00081463680323
H           -4.49070823688944        1.40921606053163        0.00077030170270
H            1.54798863876532       -3.26441512731973        0.00073560139298
H            3.62430368748908       -1.61269086453411        0.00048378157791
