23
 energy: -47.243308126703 gnorm: 0.000979025554 xtb: 6.6.1 (8d0f1dd)
N           -4.56694930266406       -1.13135749201754       -0.00262482986976
C           -3.63254575661658       -0.46340181682670        0.00067506364985
C           -2.54088065107103        0.40400320436488       -0.00021491039274
C           -2.64224625903706        1.87194018572917       -0.00122164207955
N           -1.49638027990957        2.45249931390844       -0.00096322560435
C           -0.54098394465444        1.44356788237427        0.00023104838180
C           -1.18993453210157        0.13528103936288        0.00058077994460
C           -0.42844941509916       -1.07795896331685        0.00166743050541
C           -1.07330300143616       -2.33174721423832        0.00134800457237
N           -1.61029924068760       -3.34439325345050        0.00248990363521
C            0.93747213094304       -0.95335590627536        0.00248702249843
N            1.87925165349254       -1.94442786504012        0.00357656886512
C            3.04367545293398       -1.34750693433898        0.00402973821670
C            2.92571750302300        0.12215547327566        0.00321032451960
C            1.58835018094297        0.36449778769186        0.00215720668633
C            0.81569770484341        1.57969392480052        0.00099066566863
C            1.48080335623608        2.82320219905888        0.00114917308004
N            2.07569281411370        3.80289174456232        0.00031625804181
H            3.73950949411057        0.82132241900911        0.00339285101641
N            4.20842264859098       -2.00152716232005        0.00508132089424
H            5.08403344932854       -1.51041683051929        0.00529988601305
H            4.19455335417873       -3.00705224259921        0.00550863144974
H           -3.56413696836028        2.42411408810497       -0.00194571639292
