21
 energy: -43.001577823316 gnorm: 0.000437194120 xtb: 6.6.1 (8d0f1dd)
N            3.88300625447469        2.61388840129794        0.06881917145658
C            3.42071054484967        1.56281608306434        0.04460072541963
C            2.86942141565811        0.27918935277236        0.05759182673127
C            3.54400956144219       -0.93076302802010       -0.01797729311496
C            2.62150920381241       -1.99136734621488       -0.10713025559364
C            1.34156616332799       -1.47531350770286       -0.20813857677702
C            1.46849693791998       -0.00308458856561       -0.02055618765512
N            0.39897518679971        0.67281771412466        0.22586482117945
C           -0.78836923525584        0.16389368935636        0.16499864861259
C           -2.09503695441219        0.61735908157382        0.04358332257061
C           -2.55486735868937        1.91836523430471       -0.14094275774579
N           -3.00859802291814        2.96560804807227       -0.27796440413386
C           -2.92676725781926       -0.56566531454987        0.06964704348778
N           -2.20877763007412       -1.68370648554190        0.08142990012526
C           -0.92530385697376       -1.35608054434824        0.07226753976916
N            0.14143128614119       -2.01426745487847       -0.17580854888752
N           -4.26185183696079       -0.56291810099945        0.05816294961006
H           -4.76771629672487        0.30377560629611        0.00802500615475
H           -4.75366315708067       -1.43891667641527        0.06663532749075
H            2.84951691774398       -3.03573455966699       -0.01100728730277
H            4.61195664893927       -1.04174672985495        0.00788043650416
