22
 energy: -42.714653495683 gnorm: 0.000970915666 xtb: 6.6.1 (8d0f1dd)
N           -4.79877211106209       -1.70367242248547        0.05370401403825
C           -4.01160804608733       -0.86723866226860        0.03181960719623
C           -3.05684108409484        0.14946972515856       -0.03017072332821
C           -3.27007527190013        1.51313339121121       -0.02155227722998
C           -2.02871133073486        2.19378960869644        0.03973166323315
C           -1.01275881442414        1.26980660020064        0.18814204564856
C           -1.62864093235591       -0.06563152257249        0.04346907179495
N           -0.89136632865694       -1.09455766067134       -0.20584727637196
C            0.42333602055972       -0.99306735012036       -0.14412762669417
C            1.43548319240395       -1.91921405405965       -0.04332497006328
C            2.69130732015940       -1.23324146905836       -0.01036028407419
C            2.46514853344900        0.14808793145122        0.01689383949284
C            3.44597376836599        1.13639565853970       -0.02864117289741
N            4.28789087359630        1.91971559294976       -0.04906169998978
C            1.05277628811439        0.35619297898148       -0.01050446771812
N            0.30919446254880        1.38050455999199        0.21203614626389
N            3.89168402542906       -1.84037693164326        0.04708455622259
H            3.96156352683311       -2.83696131124656       -0.05028176158354
H            4.72950534399534       -1.28617992001322        0.01083680293001
H            1.30352123769284       -2.97252717689769        0.11866963327498
H           -1.88524195815987        3.24759945900670       -0.10972026342297
H           -4.23096871017204        1.99140536304955       -0.06617494252181
