21
 energy: -38.998950230366 gnorm: 0.000474695307 xtb: 6.6.1 (8d0f1dd)
N            3.91194798037175        1.25950391616810        0.00016548819018
C            3.10246612049722        0.44378048527645        0.00077575936693
C            2.12921047301777       -0.55660454056485        0.00059603308789
C            2.35166215628091       -1.92979070393642        0.00074753281020
C            1.11924760797583       -2.60043953751050        0.00077749224418
C            0.08933030025677       -1.64709929930441        0.00060662162106
N           -1.23377854087266       -1.86377683717336        0.00061160055184
C           -1.97796162060417       -0.79305728365966        0.00043487377775
C           -3.42279924445453       -0.70767496563394        0.00038571660880
C           -3.76617134001423        0.61627529585691        0.00021519751195
C           -2.58959840096918        1.41434660907716        0.00014347434622
C           -1.48327781947409        0.56896329283085        0.00026449285627
C           -0.08713864165231        0.79657660512813        0.00032769373400
C            0.43106564546597        2.11158217304320        0.00039606207089
N            0.80897427196301        3.19348626904352       -0.00021403968438
C            0.70034312759002       -0.34134567830092        0.00045558734210
H           -2.56301903456276        2.48986523284759        0.00004307314154
H           -4.76448749866959        1.01254381527950        0.00011377917578
H           -4.07962753801511       -1.55598939030543        0.00045617690049
H            0.98101147967938       -3.66516039115547        0.00089101518154
H            3.31921001079000       -2.39659990770649        0.00083609296477
