19
 energy: -34.750405238266 gnorm: 0.000520500637 xtb: 6.6.1 (8d0f1dd)
N           -3.72237683716141       -2.03614469574238        0.00128143029677
C           -3.03617340947919       -1.11519123277953        0.00067118880777
C           -2.20854374710020        0.00935944390452        0.00064277123747
C           -2.58484254805609        1.32349603178341        0.00016581392131
C           -1.41750255912250        2.15800070659609        0.00000893199889
C           -0.29316976660505        1.36668761026139        0.00044990584775
C           -0.73515564046673       -0.02564839180539        0.00089561114365
N            0.02796453759197       -1.06368063529327        0.00133444896835
C            1.35829562352800       -0.79094492710718        0.00140289002727
C            2.44172422653312       -1.64225960091413        0.00185906522591
C            3.59657538359311       -0.77556271218340        0.00168883396545
N            3.29791563907916        0.48599787432021        0.00117912452991
C            1.90972961837650        0.55651963095152        0.00098533024374
C            1.09949033279522        1.64940968373175        0.00051061157672
H            1.47606651550553        2.66101480797388        0.00021458005243
H            4.62191579967096       -1.10020290831155        0.00195436542891
H            2.44353262985735       -2.71440493858285        0.00226451298679
H           -1.44261858708044        3.23332457909580       -0.00041060026758
H           -3.59568047525932        1.68871201420113       -0.00014514149147
