20
 energy: -39.269777199663 gnorm: 0.000398107664 xtb: 6.6.1 (8d0f1dd)
N           -3.28497186968811       -2.83059387351336       -0.00196448991197
C           -2.93677885191270       -1.73647217670508       -0.00023976660081
C           -2.52906823127957       -0.40084666302207       -0.00015750226290
C           -3.32143116648620        0.71500749389711       -0.00048729239633
C           -2.49906767695089        1.88702077144716       -0.00084468752394
C           -1.17087018311554        1.51266579037162       -0.00044675611872
C           -1.12720131044259        0.05628741531602       -0.00013903574477
N           -0.06002879969672       -0.66878551344611       -0.00024346896429
C            1.09791534677763        0.02972283682315       -0.00040238261520
C            2.41804062642692       -0.41755831934579        0.00013934614671
C            2.91373277418181       -1.71763643321628        0.00096451732239
N            3.35847296983603       -2.77763397716076        0.00162913180404
C            3.21890783628401        0.79966389006987       -0.00050363525271
N            2.50455567196277        1.87531722677692       -0.00136126334608
C            1.17665474405486        1.47743306639126       -0.00101578051848
C            0.04444046448696        2.24006016524237       -0.00080935119732
H            0.06766476600627        3.31906812313015       -0.00069528493862
H            4.29319662415735        0.83118008967590       -0.00053010334843
H           -2.87750299710207        2.89387642666146       -0.00164982008236
H           -4.39595616600021        0.72275529100648       -0.00050182195018
