23
 energy: -47.242235514967 gnorm: 0.000935373126 xtb: 6.6.1 (8d0f1dd)
N           -4.09422393064785       -2.10496577188151        0.00223528933193
C           -3.55418646157047       -1.09149131603670        0.00009276515165
C           -2.90623161087617        0.14591920637023        0.00037920358508
C           -3.47557278562990        1.38837578880225        0.00037252452664
C           -2.44850033891827        2.39125036822716       -0.00017299583683
C           -1.21850359282543        1.77206601557734       -0.00029327030500
N            0.00460095406443        2.35073231161914       -0.00083280742304
C            1.01002041208578        1.54105399985501       -0.00119644317422
N            2.32695462926108        1.91004652840591       -0.00163003759670
C            3.03163764741432        0.81834155011642       -0.00173195616609
C            2.17962408517086       -0.41082695522513       -0.00131160192279
C            2.69612162110210       -1.70221104500894       -0.00183515775513
N            3.20548936271783       -2.73311085919312       -0.00048016573116
C            0.89664838797514        0.06215217468729       -0.00096575454774
C           -0.40388691031117       -0.54475717126918       -0.00037555511677
C           -0.53240088766718       -1.95361409145401        0.00060082383257
N           -0.59445495729239       -3.09740824363911       -0.00135978457451
C           -1.44750731264317        0.33282374026394        0.00000921137148
N            4.36418684141450        0.77017833357331       -0.00219329882602
H            4.84967655600500       -0.11020257796960       -0.00216712674508
H            4.87806179572343        1.63435291027163       -0.00248204252671
H           -2.61977047863178        3.45084263554479       -0.00054541840052
H           -4.53016665672070        1.59444867086290        0.00047604744898
