24
 energy: -51.750004271487 gnorm: 0.000271978505 xtb: 6.6.1 (8d0f1dd)
N           -1.19704587272711       -4.40828233189080       -0.02423478348261
C           -1.22583056917591       -3.26070821453613       -0.01850207484573
C           -1.33195393069702       -1.86682950480710       -0.01845709285592
C           -2.51777709090050       -1.15363854000233        0.02533261386869
C           -2.20110264293749        0.28327580750389        0.01320292579544
C           -3.18250937746898        1.27034449863214       -0.10096117056607
N           -4.04113194944608        2.02938428746422       -0.17883144554281
C           -0.83249690024306        0.42832081368720        0.03989027709686
C           -0.24538102506638       -0.92364976861919       -0.02934922460908
N            1.02194370686832       -1.13372798038308       -0.15159009701467
C            1.83584235416831       -0.07502795253706       -0.17499511079287
C            3.21181911091280        0.03165953507934       -0.01877602027362
C            4.14891823075724       -0.97731745347740        0.19414030249375
N            4.94695723826467       -1.78455961969077        0.37023030625565
C            3.49652869763779        1.45654547965622       -0.12863622559715
N            2.42670363951938        2.16811319150555       -0.26956364586689
C            1.35963382760448        1.31166129739065       -0.22457911581372
C            0.02580997011863        1.56415821582438       -0.00743000013943
C           -0.47354353083561        2.86159229256272        0.24961436941546
N           -0.90167684179187        3.90471710623517        0.44745902726457
H            4.47697121454715        1.89588057381301       -0.13480420632769
N           -3.77059930433863       -1.62381368719013        0.04831293779542
H           -4.55516932060198       -0.99418436054134        0.06070169525936
H           -3.93280432756619       -2.61680065637571        0.03295546788032
