26
 energy: -51.219792160270 gnorm: 0.000994827168 xtb: 6.6.1 (8d0f1dd)
N           -1.61053226366259       -3.80786102063032       -0.00950599605412
C           -1.58978658976084       -2.65790504621110        0.00164933030065
C           -1.64269365906902       -1.26605877473514        0.00895635384325
C           -2.83469182633029       -0.51999607334865        0.01066813017265
C           -2.48889562066090        0.86410615873022        0.00880791316061
C           -3.40368976358960        1.91315382010249        0.00177780138599
N           -4.17139975656209        2.76984917774600       -0.00893113770563
C           -1.07325851409816        0.97951910952477        0.00700924321374
C           -0.53589910546303       -0.34685234706640        0.00729272889891
C            0.83740664833837       -0.56276047300786        0.00460942914355
C            1.38304898403182       -1.86489494274796        0.00356568015424
N            1.82763280084457       -2.92111638606777        0.00614867030285
C            1.66575693599256        0.58077040406228        0.00175734310059
C            3.07738239901724        0.71865828829665       -0.00250418771812
C            4.02390399278331       -0.30770661029605       -0.00530380509777
N            4.83027261729409       -1.12637019237396       -0.01012346318955
C            3.38644435797769        2.10616559770626       -0.00394994584223
C            2.21473761028160        2.81994983300241       -0.00097009292952
C            1.11414851476748        1.89825036502873        0.00230886831433
C           -0.25203014358455        2.10857885322712        0.00464317785930
H           -0.67637966604170        3.10194922797726        0.00447309566922
H            2.11909230648557        3.88985041731803       -0.00103346465984
H            4.38426230228441        2.50260326581428       -0.00694731321184
N           -4.08908495410616       -1.01140360346957        0.04042691493741
H           -4.87660710517934       -0.39283860028159       -0.03959112006703
H           -4.23763166719046       -2.00272438270012       -0.02981671858157
