21
 energy: -39.004081965853 gnorm: 0.000566504845 xtb: 6.6.1 (8d0f1dd)
N           -4.60596919701732       -1.45395573350471       -0.00128195686659
C           -3.76311432669441       -0.67294395511263        0.00193880753002
C           -2.74785517576983        0.28375525081719        0.00043983824908
C           -2.89750727002649        1.65836633677466        0.00003177272506
C           -1.62371814780613        2.26868291765279       -0.00006842848237
C           -0.64270366603711        1.27662055006166        0.00005746624657
C           -1.31731700981064       -0.00250261760079        0.00019237606218
N           -0.73300098077779       -1.16761357333955        0.00046046340035
C            0.60571045214057       -1.13250189547134        0.00045139289487
C            1.50005587376554       -2.21674945026029        0.00057440796775
C            2.80997418190429       -1.71558976545322        0.00056690053105
C            2.76959190377256       -0.32565703454248        0.00044201831812
C            3.85153751333112        0.55361262044100        0.00039071021934
N            4.72438461356383        1.30194254763708        0.00037141876761
C            1.37910353719159        0.08238954003674        0.00033105427974
C            0.76413906280073        1.30948032888711        0.00016571576971
H            1.31386516661045        2.24077081923017        0.00009413949131
H            3.70670347167848       -2.30747681793881        0.00064335535198
H            1.22053617810878       -3.25356804072582        0.00064633592266
H           -1.44891567693758        3.32999645611850       -0.00008664312408
H           -3.83589193999065        2.18176478539272        0.00019014324565
