21
 energy: -34.220818647582 gnorm: 0.000830917794 xtb: 6.6.1 (8d0f1dd)
N           -3.72727362953062       -2.04356808420498       -0.00113905851921
C           -3.05374298430552       -1.11123415685575        0.00120148127498
C           -2.21995470325749        0.00581538724839        0.00074892327039
C           -2.61648780868178        1.34708219147084        0.00128627489837
C           -1.47933678217618        2.15197585827828        0.00154651939251
C           -0.33564001397143        1.32710274119361        0.00105852814475
C           -0.78420898580380       -0.03412974314124        0.00042954057201
C            0.10181147107662       -1.09620429561336       -0.00011085848044
C            1.46172221875939       -0.78953594932962       -0.00006597030648
C            2.60817337798191       -1.61039865143382       -0.00054635123888
C            3.74432248804902       -0.79055144045018       -0.00020743172449
C            3.34622047181795        0.53335381868523        0.00047881761435
C            1.91832924027560        0.57497023082452        0.00057750786841
C            1.03060980280160        1.63090703488916        0.00115518284312
H            1.37034781262346        2.65737250883304        0.00166311325305
H            3.99105323141092        1.39343497495767        0.00087102385451
H            4.76014314900958       -1.14072172755484       -0.00044908493925
H            2.60770719711115       -2.68568522764409       -0.00108737076152
H           -0.24629872462226       -2.11992438025208       -0.00056183861468
H           -1.47542431872214        3.22717237437490        0.00214407723484
H           -3.63499852374598        1.68945731612430        0.00168453106371
