20
 energy: -39.266697068994 gnorm: 0.000715901826 xtb: 6.6.1 (8d0f1dd)
N           -3.94544744025362       -1.21721017098559       -0.00071548410976
C           -3.13082380838097       -0.40777390269972       -0.00111922011587
C           -2.14414880088439        0.58121769445956        0.00001955177687
C           -2.32771630222523        1.94323795226255        0.00038260743396
C           -1.06063387605883        2.59347669460665        0.00095714263737
C           -0.06334900575468        1.63138233321542        0.00094780657481
N            1.27339812984845        1.82407262162861        0.00144828532400
C            1.98918627337601        0.75046917891646        0.00176121547465
N            3.37518089234089        0.70727564858669        0.00229804477741
C            3.70123101924124       -0.54196086488868        0.00208036828006
C            2.55724799683527       -1.44134915705144        0.00147615250429
C            1.46164652129361       -0.62353662812634        0.00142745371603
C            0.04296035862181       -0.81827392349156        0.00093545677204
C           -0.49144089780006       -2.12695338277210        0.00128302360966
N           -0.87276116735972       -3.20751967568720        0.00059195459322
C           -0.70296161890017        0.32937259457452        0.00051933461264
H            2.59565664171407       -2.51431277676711        0.00106827577219
H            4.73170413258061       -0.84844782943407        0.00241601163071
H           -0.90596236932799        3.65596909442093        0.00140209784975
H           -3.27796526350631        2.44454503763244        0.00010086288598
