22
 energy: -47.505995533016 gnorm: 0.000448961856 xtb: 6.6.1 (8d0f1dd)
N           -3.81119567816431       -3.14536867229130       -0.06080955085704
C           -3.36966717920808       -2.08646964263419       -0.04746627200562
C           -2.83806997232860       -0.79372347780727       -0.04067752608728
C           -3.50397645483683        0.40894055118369        0.00190333600975
N           -2.64588200448070        1.46934876042763       -0.03658532094604
C           -1.42533882770220        1.04123117397970        0.09925983256422
C           -1.43621277600340       -0.44948695032598        0.04159682333175
N           -0.36383452869235       -1.11996977823809       -0.17525555775283
C            0.81646046155753       -0.51911565505921       -0.13994547587355
C            2.10922868118465       -0.99646008951397        0.00224836350582
C            2.57706024207737       -2.28925239118089        0.20312568583725
N            3.03780415662832       -3.33041852339219        0.36463113220531
C            2.96397614123405        0.19907634840514       -0.09437689121330
N            2.25515468273874        1.29947608923234       -0.19951942127714
C            0.95226138108427        0.95238459029205       -0.16816069034002
C           -0.18086045561576        1.71683518378829        0.00880207858669
C           -0.11162727484673        3.11829069888958        0.16387351936986
N           -0.05654455887138        4.25552938181217        0.28201892732559
N            4.29562538349893        0.16477798392852       -0.07778560898071
H            4.78595181904678       -0.70367138156499        0.05120302655966
H            4.80637533595702        1.02493137394184       -0.18314308795496
H           -4.56336690155654        0.58218698662728        0.00968254549274
