20
 energy: -38.467713156704 gnorm: 0.000419245934 xtb: 6.6.1 (8d0f1dd)
N            4.03402144158789        2.22083193276530       -0.00272865156171
C            3.37058940871459        1.28324341785144       -0.00161568568629
C            2.56852355269510        0.14231306234011       -0.00115559620494
C            2.95367547741489       -1.16925216465491       -0.00030602638826
N            1.89230055898610       -2.05706062238065       -0.00021656225725
C            0.79569895542985       -1.35188264355565        0.00101080221272
C            1.10638539201244        0.10887351063997       -0.00021977034496
N            0.25060811966645        1.06123840802174       -0.00197665111389
C           -1.05640027426248        0.64444097150799       -0.00039214922217
C           -2.19493563968318        1.38015857971587        0.00222102737769
C           -3.28667079665206        0.37734048027531        0.00318874592042
N           -2.85148770668103       -0.85001889290007        0.00163165411191
C           -1.47444850676227       -0.77138992385369        0.00011218828419
C           -0.55689538767737       -1.77508463645831        0.00112564948203
H           -0.81917435260392       -2.82022882912192        0.00234715741974
N           -4.58300139472750        0.71014299766487       -0.00046443512933
H           -5.26993668953095       -0.02357716934882        0.01226838027442
H           -4.87300310554529        1.67062842705607        0.02504347596564
H           -2.31445297468577        2.44564521332708        0.00278814404301
H            3.95543232830461       -1.55928416779176       -0.00007261288301
