18
 energy: -39.809558336987 gnorm: 0.000860432442 xtb: 6.6.1 (8d0f1dd)
N            3.96707061494410        1.11959724947771       -0.51950404957047
C            3.10831331515648        0.38656733511967       -0.31136690538201
C            2.09236318135450       -0.53280162229563       -0.04477336542032
C            2.23886584033366       -1.96605018269163        0.07717797809768
N            1.09261737202895       -2.57301286448331        0.17655001788732
C            0.12125653325514       -1.63252405506520        0.14053797903260
N           -1.15453734130235       -1.76659973054470        0.03592333272791
C           -1.98487769421461       -0.77524501079463       -0.02778835408282
N           -3.28400196120369       -0.66821357030291        0.11543195207774
C           -3.57836565791980        0.62474552864747       -0.11472107501827
N           -2.53932253065831        1.41209842559124       -0.32398473153183
C           -1.46888653370249        0.63914381099086       -0.23654910708170
C           -0.12459028702894        0.82991185937138        0.00741793978954
C            0.34694717737134        2.11769885020897        0.35488854903445
N            0.75320109131944        3.15874539946242        0.59833013616181
C            0.73123696160385       -0.28527109872815        0.09509336705977
H           -4.59004025671466        0.98081963275497       -0.11891128897996
H            3.16733177067282       -2.50510753771704        0.10409824889517
