17
 energy: -35.298798241406 gnorm: 0.000585282237 xtb: 6.6.1 (8d0f1dd)
N            3.74931367648943        1.97551762360260        0.23366360643812
C            3.01116570593508        1.10299811324118        0.11783896491522
C            2.14511788223567        0.01943887439663       -0.02794588048992
C            2.48736054929040       -1.36248934290989       -0.07342180607691
N            1.42828351503981       -2.12792644003703       -0.16084851585781
C            0.32929333134353       -1.36554372163683       -0.12263452481727
C            0.74504511182428        0.05696200603166       -0.14435047395104
N           -0.15074422725647        0.99776277046173       -0.16727887063611
C           -1.39928906635069        0.84298978019731        0.04413353557026
N           -2.45918801982196        1.64362294216173       -0.00826161440324
C           -3.50303924920029        0.84035471151183       -0.01674218618072
N           -3.21713196293045       -0.47925790519658       -0.05231669314192
C           -1.92488940469649       -0.59589970843444        0.08730092389176
C           -1.00262891667231       -1.63245238416687        0.07356533459454
H           -1.32363827774564       -2.62804734086602        0.34408588020848
H           -4.51362119754060        1.19985536735841       -0.03267056438535
H            3.48054352125689       -1.77045002031465       -0.08802375207764
