23
 energy: -47.237608084022 gnorm: 0.000554665671 xtb: 6.6.1 (8d0f1dd)
N           -4.16113136491869       -2.06316118350667       -0.00011568774214
C           -3.52950770888825       -1.10324707343331       -0.00066461150870
C           -2.81617120474956        0.09344153237530       -0.00073722036989
C           -3.42481598996776        1.43616567212425       -0.00107942107749
N           -2.55128970809435        2.37541078546985       -0.00117679905394
C           -1.29820484101693        1.76522918161776       -0.00100242100662
C           -1.45462121982723        0.31959278097634       -0.00067307592302
C           -0.31469021494701       -0.55064473551739       -0.00040077275541
C           -0.47951767274812       -1.94939830207748        0.00003652874512
N           -0.62274254553486       -3.08721911210399        0.00021797807873
C            0.91887633403361        0.05561003024798       -0.00046950396669
C            2.26674894864771       -0.42543196189542       -0.00027957169927
C            2.73534197110081       -1.73527224509192       -0.00000971745873
N            3.18460193015282       -2.79384562292963        0.00045218180987
C            3.06794067937191        0.72768197533668       -0.00046274981498
N            2.31516471988764        1.88212185385301       -0.00077508775282
C            1.05385226130138        1.51615910784237       -0.00079130134927
C           -0.08197282278069        2.37175874036503       -0.00106100130364
H            0.03635031944103        3.44254599948761       -0.00127612917797
N            4.40161234131876        0.80747125565183       -0.00038045676355
H            4.83359958929507        1.71499495696399       -0.00053231296181
H            4.96363695316242       -0.02603175708382       -0.00014934451654
H           -4.48178205683972        1.62961608242765       -0.00122066433120
