27
 energy: -50.141052084996 gnorm: 0.000779148897 xtb: 6.6.1 (8d0f1dd)
N            2.71028577580122        3.29037601899155        0.00540836523776
C            2.26612140864704        2.23001477221519        0.00767714608570
C            1.83234116017072        0.90318519566634        0.00703508278337
C            2.76459540649668       -0.22109531701003        0.00795217227458
C            2.03015903522141       -1.39122914730089        0.00517024940388
C            2.54197607459598       -2.68497613645449        0.00420585975595
N            2.97749805888357       -3.75028640322141       -0.00007509580997
C            0.61873847972863       -1.04040184417850        0.00193012758789
C            0.54214957330974        0.40517116180914        0.00335229605414
C           -0.72561824429410        1.07619172894902       -0.00022020386430
C           -0.79861472778981        2.48286343403726        0.00340323231393
N           -0.88234415445480        3.62731350519065        0.00463316348727
C           -1.85531499275869        0.29694348815431       -0.00566724744691
C           -3.24740457531497        0.63806315599136       -0.00530145998047
C           -3.96345984763780       -0.52680370564206       -0.00346635766774
C           -3.03501927062672       -1.65198644007768       -0.00601758889594
C           -1.75883754251336       -1.16278413846199       -0.00498104499517
C           -0.49708762540444       -1.81775477898783       -0.00209757341286
H           -0.44044495688551       -2.89615367071425       -0.00301764810815
H           -3.33381754495301       -2.68482825380772       -0.00929464269487
N           -5.31261805928734       -0.69127371567421       -0.05901212517023
H           -5.69812297566530       -1.58840678687005        0.17957503469668
H           -5.89390308573135        0.11208183791764        0.10721049612111
H           -3.63301064832303        1.63887925928779       -0.00679731347308
N            4.10417777870911       -0.07117503157925        0.02259544548715
H            4.69937171223379       -0.87946211295465       -0.00653433782673
H            4.51126099674259        0.84640842052448       -0.01120209264291
