25
 energy: -51.487824147304 gnorm: 0.000732484348 xtb: 6.6.1 (8d0f1dd)
N           -5.04097269086588       -1.89221726979469        0.00047776531090
C           -4.24849888102571       -1.05961659875896        0.00041739343572
C           -3.29655305023404       -0.04403113942555        0.00023322761672
C           -3.57186480698505        1.39339383865606        0.00016735480682
N           -2.49598634194028        2.10272000974026       -0.00001738067036
C           -1.43255621772773        1.21658419884452        0.00014111355155
C           -1.91204053331069       -0.14886186779598        0.00017860423551
C           -1.01698321850666       -1.25177583773839        0.00011143891382
C            0.31369280010128       -0.96242254142009       -0.00000439451739
C            1.47941043619064       -1.83558898955484       -0.00036541183213
C            1.44875601574412       -3.22726865056180       -0.00115452290030
N            1.44115623595952       -4.37743386768904       -0.00032262719224
C            2.61817320296533       -1.04328617245124       -0.00028022233628
C            2.19748349025182        0.34708548927718       -0.00012631439226
C            3.10731941488120        1.40698994562440        0.00043492306077
N            3.91966436423245        2.21931550291767       -0.00168191711530
C            0.80448441038491        0.39457994236216       -0.00003089332394
C           -0.08750500536148        1.50659701886980       -0.00000220946740
C            0.40079118341426        2.83130277805973       -0.00141049070860
N            0.81217111302527        3.90041072925146        0.00112410209762
N            3.90440799278860       -1.43633398233577        0.00061785685287
H            4.13097441807988       -2.41512005903374       -0.00193361949832
H            4.64502574566726       -0.75741505973143       -0.00227165291081
H           -1.38932396928925       -2.26548691658357        0.00000479772679
H           -4.54960767173957        1.83808091497169        0.00021182375642
