22
 energy: -42.721323041789 gnorm: 0.000680435913 xtb: 6.6.1 (8d0f1dd)
N           -4.19610600112373       -1.56152136183860       -0.00856356182177
C           -3.44871237156060       -0.68958792826957       -0.00433380180050
C           -2.54415312413888        0.37297895015124       -0.00335433408214
C           -2.81055457248124        1.71808186752540       -0.00690524563563
N           -1.67241431716126        2.49070540672782       -0.00444592247684
C           -0.64688939132658        1.67839232919217        0.00017544541111
C           -1.09140120594022        0.27337195066305        0.00108918137104
C           -0.20924648702757       -0.75938651681689        0.00559490159775
C           -0.57535031908312       -2.12134617225914        0.00818077204365
N           -0.82326544106013       -3.24075856896774        0.00889771557972
C            1.19493209453847       -0.40834904752716        0.00759347432942
C            2.32608919093907       -1.15511919093171        0.00680107558603
C            3.42927846513971       -0.16764806616132        0.00707131669045
N            3.00232101749735        1.06150526011720        0.00852078034648
C            1.62381148071242        0.99640830496855        0.00821565819390
C            0.73286448060140        2.02095072637762        0.00432372986399
H            1.03625196453606        3.05399724097889        0.00412497037610
N            4.72432057404189       -0.51339463607782        0.02712601749443
H            5.00568027671205       -1.47259328475038       -0.06138531713747
H            5.41379756848321        0.21649678004232       -0.01599266396730
H            2.43685826196202       -2.22300416735868        0.00716680166752
H           -3.77266771146033        2.19627470931473       -0.01118763733001
