21
 energy: -43.786498826306 gnorm: 0.000440379520 xtb: 6.6.1 (8d0f1dd)
N           -4.65408723555422       -1.50702369682296       -0.00101879457143
C           -3.83727581711906       -0.69814273074399        0.00066830007109
C           -2.87898598659108        0.30963712358492        0.00029426649147
C           -3.14328706099983        1.74061429567432        0.00049462236395
N           -2.06408210014748        2.45077207191211        0.00061503319188
C           -0.99490994447764        1.57302972316860        0.00047718250721
C           -1.48389368867203        0.20870242418006        0.00017003693885
N           -0.69005337735035       -0.87741249797774        0.00002415537748
C            0.58022654490250       -0.63062653550545        0.00014900270374
C            1.68774332541503       -1.59811144257474       -0.00012893298336
C            1.53413598186181       -2.98837089301302       -0.00100052582105
N            1.41638728499066       -4.12965238402256        0.00001201591452
C            2.85877079216584       -0.89340436684759        0.00013056191682
C            2.56171528490109        0.51684199507988        0.00040021686094
C            3.52096287010519        1.53388471119553        0.00034050505367
N            4.30177108088407        2.37594268975209        0.00101629642547
C            1.17620029784676        0.69141326389001        0.00042767919699
C            0.34730001707675        1.83461588404340        0.00060119283582
H            0.74947227553440        2.83636288095703        0.00081948292825
H            3.85266438745596       -1.30159940892105       -0.00006455515164
H           -4.11950028592843        2.18974010709113        0.00072318224951
