26
 energy: -50.424885406755 gnorm: 0.000546524303 xtb: 6.6.1 (8d0f1dd)
N            2.77933799293824        3.32513053698062       -0.00278987394072
C            2.35342406154014        2.25738047034233       -0.00130175434004
C            1.91474401246103        0.93278514423271       -0.00051626668974
C            2.74522138563681       -0.17443182970375       -0.00099691369902
C            1.91079206574704       -1.38013935649588        0.00035455631039
C            2.43682603140289       -2.67064126456395        0.00013085859561
N            2.91638860143780       -3.71580536592814        0.00035996352385
C            0.58454164227134       -0.99842597352245        0.00163365397506
C            0.55014213859160        0.46630491934721        0.00112454399140
C           -0.63863686657195        1.14021884062651        0.00204299629921
C           -0.75075446082798        2.54320356417803        0.00046154345738
N           -0.90644650118025        3.68022349021390        0.00267697200487
C           -1.84517188274647        0.34966776718596        0.00367765992815
C           -3.16089819573684        0.67289401060752        0.00484594721478
C           -3.86866151836115       -0.62437847751567        0.00616035142036
N           -3.05585788236211       -1.64514958483271        0.00574375261665
C           -1.78427030640826       -1.12075402116054        0.00421932938945
C           -0.59719564374559       -1.78203291631655        0.00321758855059
H           -0.54133469140855       -2.85878905707686        0.00359296625613
N           -5.20273615400956       -0.73509807602729        0.00760324751586
H           -5.61148528695905       -1.65304743650287        0.00828240376948
H           -5.79104310865976        0.07781934715409        0.00772318116119
H           -3.62334441312712        1.64118649868629        0.00492850737086
N            4.08648750781799       -0.20560048193350       -0.00239753366434
H            4.57718881769592       -1.08290761585340       -0.00259730520904
H            4.60699460606418        0.65477464637815       -0.00329890990845
