21
 energy: -43.791076383064 gnorm: 0.000816195921 xtb: 6.6.1 (8d0f1dd)
N            4.67452434437202        0.44175152939136       -0.00175847585073
C            3.66736843377308       -0.11078832907421        0.00219482542186
C            2.47452067557139       -0.83147370282883        0.00054065621872
C            2.37295501029283       -2.29524638297363        0.00012369082000
N            1.15530358266604       -2.70656678045972       -0.00000023850061
C            0.34327124003026       -1.57892978207305        0.00035972860196
C            1.16392680863887       -0.38283601170747        0.00044338698636
C            0.57446073804646        0.92170953529960        0.00057887236692
C            1.38147800961084        2.07998958252003       -0.00082825670480
N            2.05436602328256        3.00703718591951        0.00248647306952
C           -0.79649156579223        0.96774682269881        0.00072054770807
N           -1.60953654069860        2.08969640709714        0.00081993728458
C           -2.82650019246109        1.66992835407257        0.00085939515576
C           -2.91686012450204        0.20754702380330        0.00062285059340
C           -4.09311284697370       -0.53817660883549       -0.00033155458073
N           -5.06792992760000       -1.14658359840436        0.00208143197832
C           -1.60331614605640       -0.23958812289207        0.00066947174426
C           -1.01692381846551       -1.53213725381929        0.00043854708516
H           -1.62318701667144       -2.42455884461015        0.00026568237870
H           -3.66338586454181        2.34359986096896        0.00080426986225
H            3.20850081217846       -2.97064144619298        0.00020958826103
