31
 energy: -51.439544936533 gnorm: 0.000489197977 xtb: 6.6.1 (8d0f1dd)
N           -5.50383999860447       -0.57664270110674       -0.02464926784224
C           -4.35270207938698       -0.53499388206999       -0.00004694988821
C           -2.96403950625675       -0.43172895885190        0.01056834957452
C           -2.03895486647632       -1.48676129357631        0.00078477211549
C           -0.75338597363570       -0.94088649871809       -0.01665126473699
C           -0.88165797718832        0.49662500602887       -0.00022042148184
C           -2.25609806354504        0.79551863458527       -0.00806419424711
N           -2.84436443977875        2.05232033696641       -0.01183005346858
H           -3.85064066438784        2.00913890651286       -0.11480995500177
H           -2.42706565767102        2.71141645200417       -0.65536936353200
C            0.24835863404128        1.33335541033656        0.04583917408600
N            0.11653549793658        2.69639196787522        0.16953717135403
H            0.91561287691147        3.16315294363008        0.57185642367296
H           -0.76735559537005        2.99281460702605        0.55739076288476
C            1.49504218872965        0.71233631490691       -0.02977472983154
C            2.80943111791200        1.24664976682789       -0.07609444973059
C            3.72029699636098        0.19121075039035       -0.00959016489917
C            3.01699778595656       -1.01172063362191        0.05586115890674
C            1.62628817351062       -0.72554514674660       -0.00514110877017
C            0.51239498286433       -1.56208058018912       -0.03804055661493
N            0.62635625404019       -2.92792655122295       -0.06807888032959
H            1.45493388080305       -3.29692768733344       -0.50628052689967
H           -0.22294160961266       -3.42779145155590       -0.27807833313738
N            3.58218209417451       -2.26873734774682        0.13542643064384
H            3.06881506610386       -2.92804429657690        0.70254491477477
H            4.56957271779072       -2.25666889380279        0.34907995027566
H            4.79133138828126        0.29011247460042       -0.00525937887515
N            3.13797352609648        2.58698160914788       -0.14257030847998
H            4.11428642312519        2.75520188508690       -0.34060640094158
H            2.52320308387069        3.14730570286842       -0.71520595065023
H           -2.30715494499588       -2.52838617387353        0.01628462056976
