24
 energy: -42.194449630427 gnorm: 0.000525513981 xtb: 6.6.1 (8d0f1dd)
N           -5.90048541108166       -0.19196876462694        0.00140205438636
C           -4.75227381432875       -0.20561408431353       -0.00105169891629
C           -3.35114457589608       -0.21063456573073       -0.00002513596353
C           -2.53782347457793        0.94562739879595        0.00034191543561
C           -1.20269046889282        0.53808825243456        0.00020288957540
C           -1.18880981556003       -0.90419240108238       -0.00005986508134
C           -2.53163813898755       -1.33986232927048       -0.00006797420565
H           -2.86696698299931       -2.36028388809537       -0.00038422779225
C           -0.00002922170733       -1.62087028319873       -0.00031729664663
C            1.18876292796376       -0.90423214829000       -0.00029157904411
C            2.53158642170078       -1.33994045383709       -0.00042110798764
C            3.35112118686596       -0.21074281124844       -0.00012020799685
C            4.75225496023523       -0.20575645503227        0.00059352280099
N            5.90052567199708       -0.19213752272228       -0.00088050567379
C            2.53783146429737        0.94554563678922       -0.00000325547763
C            1.20268929681554        0.53805162639126       -0.00003099412166
C            0.00001140992046        1.28329055287044        0.00020420461853
N            0.00002968866810        2.62072161154231        0.00043065003567
H            0.86541600087657        3.13187916008745        0.00043202834645
H           -0.86534273986620        3.13190213308321        0.00056670750670
H            2.91813874486841        1.95184886646369        0.00026533493666
H            2.86688191975963       -2.36037334811318       -0.00052421400118
H           -0.00004994801704       -2.70134530624384       -0.00051697481657
H           -2.91809866945424        1.95194207074723        0.00040053578271
