17
 energy: -35.320520899245 gnorm: 0.000921606717 xtb: 6.6.1 (8d0f1dd)
N           -3.87898583902075       -1.88696913807506       -0.00096775214358
C           -3.11189551020403       -1.03376424812234        0.00009718082678
C           -2.18991366914161        0.01888379526590        0.00063796699522
C           -2.43445514346680        1.39249185791574        0.00051266713821
N           -1.30775079828571        2.11150087813419       -0.00015814058635
C           -0.27026771593550        1.32548456490653       -0.00108072955438
C           -0.78799614640256       -0.12600077507655       -0.00083343117390
N            0.10527548662168       -1.03104084756185       -0.00054353163366
C            1.36845146199523       -0.92515593613035       -0.00077070531093
C            2.53357628090587       -1.68912070419257        0.00015539236288
C            3.58804160409413       -0.79920275857832       -0.00030479082293
N            3.18467043257989        0.48564349803308       -0.00074232863140
C            1.89744806602850        0.56089109867476       -0.00073786799084
N            1.00392321515627        1.47321721855913       -0.00178234978329
H            4.63798592020542       -1.02014032235429        0.00075899373463
H            2.56085724158305       -2.76091695854949        0.00213053995278
H           -3.38906992851309        1.88253306195150        0.00172394982075
