30
 energy: -52.530077577411 gnorm: 0.000603126787 xtb: 6.6.1 (8d0f1dd)
N           -5.86402283398358       -0.64555272394149       -0.05312721245599
C           -4.71580261212525       -0.57211555924473       -0.02379552118718
C           -3.32909738480174       -0.42533308687922       -0.00123752181167
C           -2.37177489851059       -1.44464158030228        0.05749037452813
C           -1.10054245104961       -0.86029769462183        0.02174018483555
C           -1.27409352479905        0.57236094103326       -0.03072377889673
C           -2.66140925051223        0.82485155133342       -0.07353831367866
N           -3.28911386738977        2.04632141396588       -0.13927867968275
H           -2.85325058167970        2.73797157972767       -0.73162882295951
H           -4.29036798115352        1.98524348894431       -0.26735220004608
C           -0.17892549880973        1.44684061607591        0.04052325945496
N           -0.34103393408948        2.79478975185017        0.09948523951899
H            0.47522260827016        3.34551575259327        0.30850513462950
H           -1.21677057902046        3.14383100557897        0.45238238997724
C            1.10025491952107        0.86064821963403        0.02096613651773
C            2.37151230823950        1.44498386319323        0.05594293757200
C            3.32878603497306        0.42561997355429       -0.00273880150164
C            4.71551522410750        0.57222700684749       -0.02427877600268
N            5.86359506406173        0.64619265727524       -0.05895954441027
C            2.66105137022470       -0.82453087728056       -0.07495285931780
C            1.27376848524806       -0.57201603269587       -0.03143834045826
C            0.17864137235234       -1.44648917656710        0.04056436750523
N            0.34079503978265       -2.79443125044254        0.09957259920577
H            1.21673242479856       -3.14343278300575        0.45202606986365
H           -0.47533820299145       -3.34514050416387        0.30909210053075
N            3.28869503251353       -2.04604210190786       -0.14076962120185
H            4.28989022025149       -1.98497829418547       -0.26927089487488
H            2.85261320119553       -2.73771213694964       -0.73291761812791
H            2.60593301176195        2.49357039484863        0.10018687017791
H           -2.60615612628572       -2.49323577856763        0.10174608359647
