28
 energy: -49.083930477495 gnorm: 0.000465180996 xtb: 6.6.1 (8d0f1dd)
N           -5.89628735413327       -0.38554095806289        0.05634877271584
C           -4.74941493574642       -0.46962287132754        0.02404932612699
C           -3.35404472869191       -0.50002148219326       -0.00058265376710
C           -2.52579742208351       -1.61812811625912       -0.02695490331620
C           -1.18714554742301       -1.17963098826161       -0.00854047479954
C           -1.19581698235105        0.26821802394521        0.00358962278115
C           -2.54347399531503        0.67603563610534        0.03856786893649
N           -3.04199340677602        1.94863351112843        0.09062009210872
H           -4.04010221006130        2.00682821969103        0.23823665065503
H           -2.50743402793661        2.63557522585160        0.60010587262025
C           -0.00032379737696        1.00129935732356       -0.07260605374923
N           -0.00040001157444        2.36103037543840       -0.22757361002608
H           -0.84645125511990        2.75573662253042       -0.60965759587579
H            0.84573839765487        2.75586484634063       -0.60933827861162
C            1.19526531481662        0.26843473561999        0.00417106743142
C            2.54282564256082        0.67650904920894        0.03974921611870
C            3.35364209476377       -0.49938574403295        0.00084870937298
C            4.74900021359629       -0.46867890111376        0.02560771539898
N            5.89580088202173       -0.38452143878142        0.05988654075294
C            2.52562191643116       -1.61765434905031       -0.02576410389612
C            1.18687619421430       -1.17941361743100       -0.00796353017292
C           -0.00006486443374       -1.89466357437503       -0.02505564925429
H            0.00003372495917       -2.97452289439066       -0.04067947034668
H            2.85580105427424       -2.63938034914468       -0.05252978622072
N            3.04106405541959        1.94920494763780        0.09197545706912
H            2.50617146494448        2.63604905762559        0.60124433824874
H            4.03910258310676        2.00759422358592        0.23998192975176
H           -2.85577777614009       -2.63991724430891       -0.05379548405271
