20
 energy: -38.475349700104 gnorm: 0.000255515595 xtb: 6.6.1 (8d0f1dd)
N            4.12502662297079        2.12186254110956       -0.00018554536587
C            3.39254189437240        1.23553875429662       -0.00011160961724
C            2.51498646223764        0.15496369155888        0.00011281876925
C            2.91108084094595       -1.26720967317193        0.00000074873722
N            1.91742302939803       -2.07571558763906        0.00015863595846
C            0.76604494352713       -1.28868307468236        0.00041655863018
C            1.14136476711975        0.14966663200821        0.00043590807406
C            0.13174999672080        1.14190579476621        0.00067566242843
C           -1.14269198490964        0.66591277173193        0.00082070765589
N           -2.33341264579712        1.35818741577589        0.00125246240350
C           -3.27589587073733        0.45643077670987        0.00155174483355
C           -2.75586587745162       -0.92685757950531        0.00126841568316
C           -1.40489720017707       -0.78567147103719        0.00080950100715
N           -0.42976215414493       -1.74587160433025        0.00053869683850
H           -3.34316480481798       -1.82359005271640        0.00134672257349
N           -4.58264137973499        0.74940359443014        0.00096894063346
H           -4.86034122221088        1.71524890848189        0.00359386875563
H           -5.27770359224953        0.02572164284356        0.00581690860436
H            0.36867558945106        2.19449812223272        0.00073569797464
H            3.92911062688756       -1.61531943986299       -0.00016432207778
