24
 energy: -41.395461899357 gnorm: 0.000442489827 xtb: 6.6.1 (8d0f1dd)
N           -5.49299003210354       -0.24869280991598        0.05193723197087
C           -4.35310826732794       -0.10384130271726        0.03740832158479
C           -2.96268924369189        0.05828436936296        0.01929879665333
C           -2.27607226193633        1.27293572546466        0.02048036971715
C           -0.89517542508941        0.99101062591830        0.00347230381146
C           -0.74796194448216       -0.44890029649681       -0.01284570051243
C           -2.02796461362096       -1.00168350986517       -0.00621669317663
H           -2.29484731202594       -2.04398673598666       -0.00576950795429
C            0.52718368837213       -1.05779689811943       -0.05418445402726
N            0.66118559628592       -2.40660103230943       -0.11151870538194
H            1.52163328313962       -2.79164323123829       -0.46221223048038
H           -0.17181441561988       -2.94624588254147       -0.27929835462869
C            1.62543011619859       -0.19111663615086       -0.01242159705379
C            3.02903245193655       -0.37876587199882        0.03253596412317
N            3.69233859731572        0.80570370539366       -0.01111302573307
C            2.77584646215895        1.75885218870203       -0.04747293157454
C            1.45830934248772        1.24051247926713       -0.03194918704885
C            0.20706090106046        1.83412041756337       -0.02053559557483
H            0.09453336528968        2.90836565616942       -0.02036526200888
H            3.06782025331978        2.79293649326912       -0.07745216810153
N            3.73267092026578       -1.53376589752814        0.10104518104129
H            4.72234563844569       -1.40757611922609        0.25169043738764
H            3.31352758478850       -2.33001065424587        0.55277142224118
H           -2.72416406576702        2.24911964052977        0.02840595142642
