27
 energy: -44.558721187251 gnorm: 0.000604072966 xtb: 6.6.1 (8d0f1dd)
N            5.23620698351255        0.80878231499123       -0.01622044152162
C            4.09794173912041        0.63553754906257       -0.02761839093406
C            2.72806338923717        0.38111216255953       -0.02770261704450
C            1.69495993916274        1.32664331994976       -0.00388935606410
C            0.46805334855204        0.64889778898153       -0.00001662603314
C            0.74683815374109       -0.76791052348591       -0.01552661482925
C            2.15456093936730       -0.91911775614676       -0.02930384700789
N            2.85314395587988       -2.07905811564199       -0.08481064894611
H            3.84682516746066       -2.04687793580481        0.06974117246003
H            2.37751616854497       -2.94324689283897        0.10597093076121
C           -0.27733499074398       -1.70703550723085        0.01820479623119
C           -1.57671061278790       -1.24360238929957        0.03119513076544
C           -2.81600746652701       -1.93525331072269        0.05459753395599
C           -3.83560295055990       -1.01370591154863        0.01324201297841
C           -3.28279690874976        0.28674436702213       -0.04344567243132
C           -1.87586183130800        0.16982720983717        0.00012148631134
C           -0.85341896840179        1.12808544106548        0.03778065466506
N           -1.12055721229222        2.46812858010368        0.08413865364726
H           -0.33617261951327        3.07027408217042        0.27594919022821
H           -1.98946089356002        2.74593392726247        0.51006397499388
N           -4.01505594438581        1.44824723260258       -0.11582626656477
H           -3.60052131793096        2.20055061799728       -0.64518073314178
H           -4.99579514233666        1.31168329692165       -0.31324728049728
H           -4.88972054139722       -1.22687967583988        0.00547939813720
H           -2.92729738749564       -3.00372285112759        0.08857754238721
H           -0.07077360748423       -2.76886472217515        0.02398600080715
H            1.85219612449571        2.39104506403504       -0.00269199481374
