22
 energy: -47.517023942725 gnorm: 0.000879500810 xtb: 6.6.1 (8d0f1dd)
N           -4.82861432661006       -1.79242415174709        0.08546113338068
C           -4.08830213432038       -0.91795001463722        0.03783135548129
C           -3.20750420272819        0.16978916127782       -0.00816607034030
C           -3.51221500139713        1.53314016888846       -0.02763214375892
N           -2.41249554661367        2.28987841047211       -0.03514539649029
C           -1.34436610935039        1.55675890499915       -0.11727808324015
C           -1.80723248553968        0.07673859133795       -0.13908074278597
N           -0.89546027304983       -0.80237243585099        0.00605500241763
C            0.37343097929989       -0.61136618568179        0.08810535979729
C            1.52559737889510       -1.39837099007452        0.03866319077242
C            1.58150107404847       -2.78947766296442       -0.06585553544461
N            1.69441329742147       -3.92980582128295       -0.14340396912546
C            2.65803181588364       -0.54032188093460        0.07106582510086
C            2.22045782438037        0.81563491917513        0.06380216912516
C            3.06662492070400        1.92219533845339       -0.02834129724779
N            3.81685726044138        2.78935934931463       -0.09249405797063
C            0.82679863011514        0.83762857315342        0.11031324675957
N           -0.08657465337215        1.74460828731435        0.04717988099269
N            3.93388409313304       -0.93973921949378        0.05137744396446
H            4.67545339016354       -0.26024012734310        0.03178230265468
H            4.15640193859829       -1.92014909994450        0.01607761659663
H           -4.48475309730290        1.98612349486842       -0.01533223643940
