28
 energy: -49.088019925168 gnorm: 0.000749798282 xtb: 6.6.1 (8d0f1dd)
N           -5.90222843566351       -0.05523799795316        0.00199656581114
C           -4.75278452224893       -0.11101983224701       -0.00858358914598
C           -3.35818301908472       -0.13482817533389       -0.01248154946265
C           -2.53425871869069       -1.27146291066344       -0.00794732012014
C           -1.19879226653340       -0.85768734120143       -0.00058224066290
C           -1.18532165361818        0.58882707733662       -0.00146910333542
C           -2.53965172717040        1.02124054962620       -0.00641749255663
N           -2.98916404188066        2.29594933613332       -0.04859800161723
H           -2.35410549864906        3.05397948942621        0.12504108180184
H           -3.97291972051773        2.46423897268357        0.07584875035409
C            0.00001007402425        1.30402414731896        0.00127357327332
C            1.18531750205783        0.58880586729784        0.00652647644588
C            2.53966940867283        1.02117959326098        0.00938389140315
C            3.35817722507420       -0.13492828820145        0.01960096583443
C            4.75274987966208       -0.11113552506663        0.01508646100696
N            5.90209095813395       -0.05530253743599        0.00401321339696
C            2.53420149431817       -1.27153588691392        0.01954695540790
C            1.19874430816241       -0.85770897803893        0.01139717494738
C           -0.00003991560793       -1.59589521240811        0.00677109184435
N           -0.00021754871975       -2.94482576140437        0.02894742926825
H           -0.86409181021580       -3.44996199268986       -0.04572808314759
H            0.86447722336218       -3.45009431054391       -0.03415766135013
H            2.90299113219671       -2.28184288767175        0.02507216202234
N            2.98932851679417        2.29592177937862        0.04434196922947
H            2.35406732816785        3.05357807293442       -0.13008246480292
H            3.97327452165970        2.46376107879264       -0.07888475445264
H            0.00000866594952        2.38666993825312       -0.00076818599349
H           -2.90311567393522       -2.28170469416854       -0.00727902019970
