27
 energy: -44.559392315110 gnorm: 0.000796808192 xtb: 6.6.1 (8d0f1dd)
N           -5.29177349980491        0.00655931813713       -0.00456678578333
C           -4.14242995503776       -0.06333163886653       -0.02073731955360
C           -2.75008653037356       -0.10523018478028       -0.02684802004632
C           -1.93985001935300       -1.25559891524361       -0.03099680377371
C           -0.60181096738794       -0.85967474267516       -0.01934930042404
C           -0.56842743656617        0.58462364550034       -0.00810529489789
C           -1.91520180120447        1.03623939516681       -0.00954667651933
N           -2.34509731050595        2.32415039854241       -0.04820945484632
H           -3.32220322984814        2.49824257354924        0.11913971585412
H           -1.70045685585689        3.05619214276603        0.19273315449204
C            0.62987346518811        1.28173054926221       -0.00006285686797
C            1.80202983218526        0.54943750049175        0.00040434288164
C            3.17026568638350        0.95425287809384        0.00456612806903
C            3.96336173790312       -0.20012402915106        0.00984290250429
C            3.13810021393577       -1.31487584210401        0.00377114848228
C            1.79365601036248       -0.89376844773585       -0.00449353063642
C            0.59271452765333       -1.61218932721568       -0.01566124998606
N            0.56808709425829       -2.96667814918305       -0.06206930335861
H            1.41930765952341       -3.47844204190511        0.08216861467822
H           -0.30263872795629       -3.44784784011234        0.07005512225094
H            3.48583779682599       -2.33325787419222       -0.00006326503532
H            5.03824831758013       -0.21092325251264        0.01510382049479
N            3.62145460738832        2.23880263716515        0.05997099819047
H            2.98177625725454        2.97436229829672       -0.18632253560752
H            4.59086320810508        2.40233826105440       -0.15353339451945
H            0.64400279346134        2.36480339040782        0.00559141089142
H           -2.32425411821330       -2.26022592205690       -0.04267812343327
