18
 energy: -35.029434958594 gnorm: 0.000834756489 xtb: 6.6.1 (8d0f1dd)
N            3.84145272242724        1.91148510431148        0.15842308069461
C            3.08126399716319        1.05484677381459        0.08314293037548
C            2.17503655799427       -0.00445707713906       -0.02116354587021
C            2.44151521410592       -1.37933270176546       -0.04264579096183
N            1.32953513299841       -2.11076298939799       -0.07023948135121
C            0.27954471034076       -1.33371316272532       -0.00863345664770
C            0.77209348559570        0.12266279302566       -0.05878898555805
N           -0.12118233861442        1.02442841891631       -0.18545415186109
C           -1.39417440135352        0.86452803429289       -0.08440778124822
C           -2.53629200449037        1.66689693299780       -0.07133103052977
C           -3.65321811378815        0.84261529836511        0.01180423826669
C           -3.26950991691208       -0.49636203727182        0.08395943779252
C           -1.87779788592649       -0.56508919481236        0.09296824292934
N           -0.98266745197344       -1.49264699968029        0.14476923065635
H           -3.90442527138547       -1.35656978334379       -0.01034924622736
H           -4.67005248765332        1.18781223411588        0.01779625874433
H           -2.51237249905019        2.73635204790444        0.01522906763013
H            3.40504697032411       -1.85140191920710       -0.06147825803336
