26
 energy: -44.841617774474 gnorm: 0.000591924965 xtb: 6.6.1 (8d0f1dd)
N           -5.31729343704481       -0.02063963182444       -0.00546557379190
C           -4.16801200658022       -0.08462359214767       -0.01439068144475
C           -2.77412424512349       -0.11865222266169       -0.01441905456823
C           -1.95930940027922       -1.26079567375853       -0.00858457387386
C           -0.62047682757183       -0.85541239522067        0.00426635968841
C           -0.59819691489604        0.59276019097717        0.00570594785601
C           -1.94712288857969        1.03208865302869       -0.00342143584210
N           -2.39031893077420        2.31303665070762       -0.05412123338159
H           -1.75307588526170        3.05920228530067        0.16086060644472
H           -3.37091782278338        2.48092718167666        0.09678236278686
C            0.59239854442393        1.30501103277442        0.01360207049801
C            1.76480976709110        0.57611629787812        0.02011479480949
C            3.14888526446736        0.92829987283365        0.02361780439440
N            3.93475750550766       -0.16055991237365        0.02702018356447
C            3.12310317169944       -1.22485715692330        0.02553754999786
C            1.76881406151804       -0.86745320478387        0.02012396730388
C            0.57122464484645       -1.60366722931886        0.01264704987176
N            0.56698095578126       -2.95297689481008        0.03491517968565
H           -0.29825403104055       -3.45520245312256       -0.04726570161761
H            1.43141097116718       -3.45817911088161       -0.03258050258718
H            3.55307764219906       -2.21137578287668        0.02536241192933
N            3.67868179934474        2.17014581860103        0.06925179146103
H            3.10323733788180        2.96128849613956       -0.15729848401107
H            4.67146652823117        2.24508336710997       -0.07199692111992
H            0.60053911100318        2.38755322575985        0.01343461351569
H           -2.33418463962747       -2.26888663328375       -0.01040655416961
