25
 energy: -41.117405955085 gnorm: 0.000457460362 xtb: 6.6.1 (8d0f1dd)
N            5.43316855867723        0.51877527055366        0.00025955206863
C            4.28693996263301        0.42727909223347        0.00058097431933
C            2.89396935476135        0.30760031006855        0.00017543098947
C            1.97952353337840        1.36093268782063        0.00076395331433
C            0.68383448288479        0.80808600641050        0.00024483715705
C            0.82405703376277       -0.62823985631248       -0.00067491628918
C            2.18511320723047       -0.91797542835053       -0.00071995453633
H            2.65302117273729       -1.88686013725918       -0.00145752056425
C           -0.31507006729103       -1.47324387016670       -0.00116603550011
N           -0.18171360611972       -2.81526584876430       -0.00382100180655
H            0.73117121528430       -3.23119612856794        0.00320373165247
H           -0.98992330211188       -3.40941896093280        0.00301345590292
C           -1.56445445905772       -0.84459608276410       -0.00096093405304
C           -2.87850982691815       -1.36547494901847       -0.00140132317314
C           -3.78531962560223       -0.32185500360740       -0.00089447856246
C           -3.07742657962309        0.89304051260240       -0.00008788639550
C           -1.67901722805703        0.59027582537087       -0.00010247555911
C           -0.56843123872038        1.41176250907243        0.00048285138065
H           -0.65479004429298        2.49043303533308        0.00113814151761
N           -3.61586797118063        2.12739094124731        0.00220503149095
H           -4.61229067353569        2.24793406265651       -0.00314080020821
H           -3.02708954822515        2.93995525031183       -0.00265840135471
H           -4.85592895920596       -0.41198378892746       -0.00109680337237
H           -3.14599772941881       -2.40787969519482       -0.00227102720881
H            2.22546359011086        2.40697195078498        0.00161968559036
