23
 energy: -37.671425001087 gnorm: 0.000263604126 xtb: 6.6.1 (8d0f1dd)
N           -5.20146001907160       -0.05666637841718       -0.00046410688348
C           -4.05328502743912       -0.10402193063662       -0.00068842752838
C           -2.65458343439126       -0.15135941440219       -0.00059162229037
C           -1.86883699327524       -1.30823505163374       -0.00077811504422
C           -0.51629814782796       -0.91580538215819       -0.00077038054087
C           -0.48303667685702        0.52331993420486       -0.00053033286945
C           -1.80521387362867        0.97591308297619       -0.00040181504658
H           -2.15061885374126        1.99498503810092       -0.00022289986294
C            0.74474400504878        1.22708547299015       -0.00053300827743
N            0.78499578057696        2.56735235291753       -0.00020509342097
H           -0.06502659444254        3.10258689655878       -0.00035406924307
H            1.66569809544608        3.05021202234109       -0.00057067708504
C            1.91951165728209        0.44600860316309       -0.00080129273358
C            3.27517371641903        0.80231672593526       -0.00094258243181
C            4.04508888033163       -0.37000402729361       -0.00125236676627
C            3.20169895886500       -1.46300041867775       -0.00131692463606
C            1.86011818524012       -0.99285881465185       -0.00103772982439
C            0.65521576196970       -1.67022753117969       -0.00100912972000
H            0.61853269221318       -2.75046720896536       -0.00119927769508
H            3.49547311539706       -2.49654169137218       -0.00155236128590
H            5.11927978507833       -0.40188131002261       -0.00142157810587
H            3.67769577031415        1.80065188822280       -0.00083319190273
H           -2.23797861160745       -2.31722358949969       -0.00094834210550
