19
 energy: -38.765610010618 gnorm: 0.000646865955 xtb: 6.6.1 (8d0f1dd)
N            3.96051582438252        2.24767258955860       -0.05159516364659
C            3.30153191226244        1.30840002149569       -0.01654886144216
C            2.52495834004604        0.14636586280068        0.01536238321539
C            2.95410141476797       -1.18536958342449       -0.00092338378890
N            1.93143969060499       -2.04222161347652       -0.00153497538501
C            0.80480895906153       -1.38423151888830        0.06598742469352
C            1.12001188458574        0.10257332294770        0.11821641274465
N            0.13041879114737        0.92148743101985        0.06039815607311
C           -1.10696992885673        0.64378980839582       -0.03068838682168
N           -2.22961208770069        1.29324571868371        0.00571273807903
C           -3.25721746177786        0.41210438367190       -0.01820561688865
C           -2.81976937465389       -0.92220502390655       -0.02503400117518
C           -1.44006683629067       -0.89217949429168       -0.08489595886557
N           -0.44115144099360       -1.68348146050672       -0.07180645637275
H           -3.41940884351014       -1.80894107396949        0.01613494828288
N           -4.52545532275552        0.85604079238258        0.00607664712555
H           -5.29308046999079        0.21179835226937        0.01108509504380
H           -4.69421764238928        1.84504009148069        0.00493012504305
H            3.96538496956055       -1.54286555484288       -0.01971202841437
