27
 energy: -44.561822218489 gnorm: 0.000951832220 xtb: 6.6.1 (8d0f1dd)
N           -5.47004110651201       -0.49325438584578       -0.04773347243267
C           -4.32794639290576       -0.35697779072745       -0.03573443948212
C           -2.94059895541085       -0.19149661026865       -0.02148055785642
C           -1.99481545493579       -1.22673164635412       -0.00138579227233
C           -0.72034211741966       -0.64615504200160        0.00303504940042
C           -0.89247240765415        0.78097541281555       -0.00892493516091
C           -2.26370662034581        1.04222321173105       -0.01967575122589
H           -2.74812233664315        2.00269852252816       -0.02099106882082
C            0.22011378693244        1.65680336952221        0.02042668642626
N            0.05025627024758        2.99333369767746        0.04890812506221
H            0.84453083585158        3.60642353553290        0.01730512127946
H           -0.87220504947421        3.38390472368058       -0.01743180543794
C            1.48870212179764        1.06578451494387        0.02462339453986
C            2.77904948073723        1.63745193043674        0.04802336245333
C            3.71874451688633        0.62508914390197        0.00401585748179
C            3.05300793709838       -0.61073253106433       -0.05420500312620
C            1.65732861737666       -0.36306438039420       -0.00913286763372
C            0.56240963309939       -1.23421417788453        0.03857953552572
N            0.71332252528951       -2.58414474331715        0.09890422108179
H           -0.11592312607663       -3.12314797099024        0.28868482044961
H            1.57236428537710       -2.94126752999924        0.48341034090965
N            3.66426889074211       -1.84267192559747       -0.12867634522528
H            4.65765100858787       -1.79743228051166       -0.30594070799652
H            3.19376587503085       -2.53002251974153       -0.69920816158962
H            4.78660004389745        0.74978194266849       -0.00387270948719
H            3.00668267842101        2.68831581382384        0.08604006950105
H           -2.23620122779507       -2.27514154806497       -0.00607009566333
