23
 energy: -41.628836501990 gnorm: 0.000469353997 xtb: 6.6.1 (8d0f1dd)
N           -4.91187560585803       -0.13862839268884       -0.02727650378123
C           -3.76412735541112       -0.19564438345401       -0.01336501055170
C           -2.35374687289434       -0.25594855382437       -0.00063531353523
C           -1.83056744416826       -1.56479591314177        0.00435280913438
N           -0.61434019518755       -2.02981313885594        0.01127548307913
C            0.50412033360754       -1.31868265972959        0.01314945366649
C            1.76246595324437       -1.88854611084778        0.01783686824799
C            2.73525303678305       -0.86804258805952        0.01677789374110
N            4.06556536306187       -1.04126840014546        0.01890345613260
H            4.45815157307078       -1.96519840786702        0.02509935773807
H            4.67809679426498       -0.24420723067386        0.02002632877575
C            2.07827612952524        0.38799378089572        0.01171385769577
C            2.71401857929860        1.62618848036601        0.00931976031576
N            3.25283531722140        2.64383616744164        0.00757492494330
C            0.68631174258679        0.16646884034943        0.00968290783108
C           -0.27596576706660        1.14308595272669        0.00615591540491
C           -1.67371002730726        0.98454137502101        0.00305989572509
N           -2.41883121949492        2.11716830650722        0.01512478500407
H           -1.97350288602834        3.01597754033006       -0.02389068770313
H           -3.42238173583995        2.06710981995191       -0.02182688624444
H            0.08105448685180        2.16822284470860        0.00608201364514
H            1.96425295212943       -2.94184460610470        0.02115540860670
H           -2.58278958258952       -2.35062854810544        0.00137543802844
