21
 energy: -42.177951935613 gnorm: 0.000595802933 xtb: 6.6.1 (8d0f1dd)
N            4.23202899373431        1.88485004757042        0.00112637258749
C            3.47011095855626        1.02559252702907        0.00068006281591
C            2.54655932744921       -0.02195949905785        0.00057824888594
C            2.82985780978807       -1.40247697777850        0.00051066862161
N            1.75569326855664       -2.18238347491000        0.00038664889174
C            0.68652010676251       -1.37753180813824        0.00024832381922
N           -0.51910933713935       -1.85175942286188       -0.00015276261082
C           -1.65963358010918       -1.15650749432752       -0.00047377923717
N           -2.74260381479336       -1.95617817987891       -0.00144860926062
H           -3.67891939629331       -1.59029747620010       -0.00162538338752
H           -2.58005145158312       -2.94845967431389       -0.00164564016391
C           -1.85530751786808        0.24861374043775        0.00004959434455
C           -3.19681213522894        0.67995975245968       -0.00168102291682
N           -4.29129074438426        1.03288320126218        0.00247420108978
C           -0.87556879810041        1.28326057177036        0.00079216705333
N            0.45031240819849        1.17987424180253        0.00083454540800
C            1.14592901709738        0.07704634572278        0.00052475016816
N           -1.29665826750099        2.56229553884934        0.00139323756722
H           -0.59241326825563        3.28007488708690        0.00176756455563
H           -2.27208175694009        2.80454002786280        0.00136021105847
H            3.81277084005380       -1.84193613158694        0.00049811740981
