23
 energy: -46.426448794061 gnorm: 0.000363092951 xtb: 6.6.1 (8d0f1dd)
N           -4.95427817516649       -0.45621408977541       -0.00085023873361
C           -3.80728912533858       -0.50061329717273       -0.00033862732721
C           -2.39218716045468       -0.54644402986124        0.00006618058304
C           -1.86276540775831       -1.83858992315133        0.00052823763322
N           -0.63431745741392       -2.29603467048701        0.00098469413559
C            0.46609296554111       -1.58847825556734        0.00118051869181
N            1.64532236252775       -2.19648519267351        0.00165667538607
C            2.59122940619038       -1.24693716598762        0.00181010184058
N            3.88593840449772       -1.54611444844235        0.00229588883968
H            4.15991523474167       -2.51382275041521        0.00257444904087
H            4.57965419638643       -0.81739377292740        0.00240992549242
C            2.03483597317258        0.07598885849955        0.00142086422129
C            2.82469821904458        1.22557930079437        0.00169669923530
N            3.56352474780594        2.10616848170821        0.00131125172480
C            0.65316891416811       -0.09123488259478        0.00096080054879
C           -0.33172905105323        0.89761235215865        0.00039537975627
C            0.11141944190409        2.24286049010572       -0.00014670200709
N            0.40789888593011        3.35163296840802        0.00032223257678
C           -1.73466617585984        0.71757482203988       -0.00002215816511
N           -2.51178075988640        1.82029179649851       -0.00054088340114
H           -2.09556117051256        2.73678051520396       -0.00062451553195
H           -3.51448102085361        1.73588708055952       -0.00085701482014
H           -2.60228926451282       -2.63592338852042        0.00049522867975
