20
 energy: -38.449016505414 gnorm: 0.000533660338 xtb: 6.6.1 (8d0f1dd)
N           -5.01422914113814       -0.57826281006995       -0.00422721322915
C           -3.88762400906765       -0.36501578298090       -0.00332509542128
C           -2.49741362041001       -0.09640319164996       -0.00142407635238
C           -2.14042340162395        1.26903927699252        0.00010686767111
N           -0.96623951600781        1.84209838552420        0.00184356407436
C            0.19637563365645        1.21130081497634        0.00253340311551
C            1.41698662456903        1.85703302639294        0.00437346626679
C            2.44841621154466        0.89913054499626        0.00464686055646
N            3.76129278555386        1.14100658567457        0.00623546824838
H            4.41380663319796        0.37433028086532        0.00622910590201
H            4.11014387957956        2.08359556884019        0.00736362427443
C            1.87052065632488       -0.40767336188162        0.00295274355048
C            2.62807115140495       -1.58221854429865        0.00291267133214
N            3.32068860995426       -2.49879395660219        0.00236427350320
C            0.48181635757384       -0.28230610360646        0.00154836396423
N           -0.34607631135258       -1.30372131572222       -0.00017976131299
C           -1.65510292054502       -1.22165799988440       -0.00149274875652
H           -2.14566834764849       -2.19083037484732       -0.00285798807451
H            1.55371807203568        2.92131917001089        0.00542662715302
H           -2.96587083850142        1.97581299537046       -0.00018617166527
