24
 energy: -46.151814647209 gnorm: 0.000685963145 xtb: 6.6.1 (8d0f1dd)
N           -5.08643167717438       -0.90116501059378        0.00114946067496
C           -3.95473402963780       -0.70545923897952        0.00199321763562
C           -2.56534949248629       -0.44554690232776        0.00141047353234
C           -1.75911779013116       -1.59640014928750        0.00041680070032
N           -0.46422389531994       -1.76396244130348       -0.00009529425669
C            0.45454289076155       -0.81901666429408        0.00023249345579
C            1.82615434195437       -1.08698197688371       -0.00034337636806
C            2.45461672405312       -2.33480780816054       -0.00119597470913
N            3.04442215680270       -3.32083524279896       -0.00248636939300
C            2.54119992939422        0.14756922678900        0.00024767458623
N            3.87229190943064        0.26635782972749       -0.00007547882090
H            4.44968814089189       -0.55747700193913       -0.00084370437236
H            4.30172570484858        1.17579893267567        0.00043341209790
C            1.60511113774288        1.20438880964172        0.00127311171397
C            1.92522983485691        2.56157525505086        0.00215051666625
N            2.19525637008216        3.67970828774704        0.00266000440052
C            0.30128295308087        0.66299345690090        0.00129007586727
C           -0.86107400395383        1.39329488868455        0.00214843375653
C           -2.18579025245307        0.92120166113502        0.00222656853834
N           -3.16822134583837        1.85035803328961        0.00321117759122
H           -4.13470420701685        1.57184018704693        0.00321189797859
H           -2.94167176735001        2.82855614043107        0.00371238223782
H           -0.74600944625068        2.47248386383913        0.00287887981267
H           -2.30372365088754       -2.53719723039056        0.00003739027377
