21
 energy: -38.178003057737 gnorm: 0.000872985236 xtb: 6.6.1 (8d0f1dd)
N           -4.59021041663874       -0.21937063547003       -0.00107200027612
C           -3.45421815113656       -0.05139119438046       -0.00151459971614
C           -2.05324034959438        0.14353194232915       -0.00094976095510
C           -1.66152489570147        1.50083294109018       -0.00013479484492
N           -0.49374565135840        2.07678223807565        0.00022073083470
C            0.68420615048071        1.48116584912155       -0.00019085977721
C            1.89554783449080        2.16021915236094        0.00010398697311
C            2.94088113811860        1.23435447119670       -0.00054442922302
C            2.42621568988651       -0.06374620913444       -0.00128705103890
C            3.14554002353401       -1.26057238557859       -0.00218169360107
N            3.70052829161650       -2.26752987151428       -0.00237000124815
C            1.00722618604265        0.01573357671507       -0.00109133785782
C            0.15144897100108       -1.04567493448510       -0.00162979508506
C           -1.26309785276976       -1.02523498094877       -0.00157563010286
N           -1.88794344229506       -2.22618658505870       -0.00206654600337
H           -2.89219323532111       -2.27938993397146       -0.00241529507387
H           -1.35390640054184       -3.07631588996949       -0.00300047186944
H            0.60438155843509       -2.03277810956480       -0.00219053074193
H            3.98920321876308        1.47589961525685       -0.00052497882166
H            1.99903825088581        3.22761122440086        0.00070479314518
H           -2.48586131569756        2.20955000112913        0.00022556208367
