17
 energy: -30.489996411392 gnorm: 0.000353613533 xtb: 6.6.1 (8d0f1dd)
N            3.65013967069418        1.25750842670062       -0.00107968496339
C            2.72719340336554        0.57432888791893       -0.00107662311030
C            1.59179224928172       -0.23996823147471       -0.00034265036774
C            1.54993026090920       -1.64809322721407        0.00027254710095
N            0.31493158336484       -2.13063940481656        0.00064687828324
C           -0.52251278845752       -1.08250054423714        0.00034094289438
C            0.25000373065926        0.18398867855607       -0.00025463060922
C           -0.24861993214443        1.47409710765068       -0.00067042278290
C           -1.59149596830949        1.84109887280372       -0.00060888253201
N           -2.69563555919699        1.12044780019828       -0.00022390777114
C           -2.83500855100652       -0.18478111071981        0.00025508830893
C           -1.89546651687884       -1.21895509107356        0.00054891866599
H           -2.26671522744914       -2.23534149701284        0.00097966359576
H           -3.87906388955307       -0.48704951463423        0.00046390003351
H           -1.79838077724817        2.90794141805067       -0.00094389276474
H            0.48008446010398        2.27683384998111       -0.00108155341794
H            2.39690288266546       -2.31131739717713        0.00035990443661
