25
 energy: -50.665480396429 gnorm: 0.000888009388 xtb: 6.6.1 (8d0f1dd)
N           -4.92821335947715       -1.59762162580087        0.00018874376268
C           -3.81774976081831       -1.30726909226419        0.00168136113314
C           -2.45011754345513       -0.94292706446882        0.00040248288670
C           -1.56703981439883       -2.03198161721992       -0.00011767208433
N           -0.26258747052488       -2.10124849440704       -0.00067217841211
C            0.58633748824369       -1.09774028684147       -0.00088155629213
C            1.97135922476409       -1.28916640699341       -0.00114909693597
C            2.66309938775310       -2.50410765268647       -0.00073673257496
N            3.29819693925962       -3.46099324702508       -0.00324712562970
C            2.61192854770025       -0.01952662265205       -0.00122067979765
N            3.92711008235494        0.19044196197538       -0.00148180747956
H            4.28875819065418        1.13040238018702       -0.00141794621542
H            4.56432755235174       -0.58888500901823       -0.00185612260320
C            1.61046669136953        0.98951919323920       -0.00059115359156
C            1.94758149239988        2.34702030070049        0.00040713208672
N            2.34600662287933        3.42463327509946       -0.00134462669623
C            0.34810993448233        0.37965230926581       -0.00045589447875
C           -0.88142687082699        1.03084682390804        0.00015285202463
C           -0.86812011399737        2.44841477350457        0.00067225113639
N           -0.94582969106530        3.59323410311300        0.00039113859968
C           -2.18094319487802        0.45004755186016        0.00052292232146
N           -3.23877429370580        1.28661294500977        0.00112403322270
H           -4.17534371570804        0.91806903055850        0.00139369512238
H           -3.10389826398389        2.28407931329286        0.00123147021327
H           -2.04076102467299       -3.01007879563670        0.00002638788188
