17
 energy: -30.488505199749 gnorm: 0.000809220788 xtb: 6.6.1 (8d0f1dd)
N            3.63752499091799        1.24455824805852       -0.00153528819521
C            2.68726959222039        0.60107860010267        0.00110141747193
C            1.54702816609828       -0.20830352048055       -0.00001571946298
C            1.51954286582033       -1.61627102649372       -0.00045069434380
N            0.29189636303481       -2.11932171341775       -0.00046117166025
C           -0.56365854168019       -1.08542358876555       -0.00012032882542
C            0.20062715063564        0.20087045284987       -0.00005160726373
N           -0.21163304682582        1.44867776680208        0.00027697934709
C           -1.45506678542426        1.85303431060150        0.00047816925976
C           -2.66502667852469        1.14030466495808        0.00050889557100
C           -2.88089984832410       -0.22528647830468        0.00035997948590
C           -1.93173156827723       -1.24626344744245        0.00008501691143
H           -2.28446469776262       -2.26958219919537        0.00000471195671
H           -3.91585841316732       -0.54414856294924        0.00045685515156
H           -3.55282105424378        1.76098663673237        0.00068250275854
H           -1.54007052357136        2.93586866195784        0.00062192460394
H            2.37542108547398       -2.26831161391360       -0.00041767166648
