22
 energy: -41.902135355234 gnorm: 0.000784932243 xtb: 6.6.1 (8d0f1dd)
N           -4.70378384991566       -1.20396914580751       -0.00596003257366
C           -3.59904547232707       -0.88732985918752       -0.00144220233115
C           -2.25131568561312       -0.47047302106119       -0.00111055117584
C           -1.29974469728093       -1.49373642584138       -0.00086409060200
N            0.01331432901953       -1.46087874109518        0.00046393797498
C            0.74753129120304       -0.36996317378928        0.00194275122934
C            0.32412558493018        1.08909692074228        0.00241455142270
N           -0.88526388990668        1.60591660794074        0.00150850578411
C           -2.03195168369126        0.94654831390667        0.00003399828587
N           -3.11727595788129        1.74979727437055       -0.00034613779000
H           -4.04945644686420        1.37456187908876       -0.00160542808258
H           -2.96584969812048        2.74274445269426        0.00034039877990
C            1.48252418916703        1.84869157473755        0.00405851322356
C            2.59234269235746        0.99234630429841        0.00471068920075
N            3.88057169565145        1.34856542446208        0.00629120301086
H            4.14456810372610        2.31797073345542        0.00711976713714
H            4.59540909431852        0.64015025975900        0.00658668673436
C            2.14037934058989       -0.36727996329251        0.00346867946514
C            3.00574919777513       -1.46165558765969        0.00401600190109
N            3.78258984910196       -2.30953623858921        0.00344043676458
H            1.52049681881851        2.92086920580042        0.00478241639607
H           -1.69679036855811       -2.50534544233269       -0.00186062395522
