21
 energy: -38.181959053793 gnorm: 0.000961644838 xtb: 6.6.1 (8d0f1dd)
N           -3.63471855298950       -1.00310621273353       -0.00018181927747
C           -2.72619289275855       -0.30028017710380        0.00074330056137
C           -1.67586597598512        0.62170040906491        0.00020388119023
C           -1.84494994843440        2.02390810691267        0.00012951466647
N           -0.70061402024011        2.68394600522042       -0.00005830641820
C            0.28766727136316        1.76819968555146       -0.00013641147246
C            1.61066343912802        2.14062838960311       -0.00041726221916
C            2.72612098992314        1.30453070386178       -0.00054124983029
C            2.79178466110854       -0.06790613968412       -0.00039097942165
C            1.78060622281235       -1.05123289785027       -0.00008682983627
N            2.20201652080516       -2.34151516593138        0.00085312380936
H            1.53830086823107       -3.09671952333543       -0.00106776872949
H            3.18199761281858       -2.55674493224025       -0.00194540802829
C            0.38460470481292       -0.81966854888315       -0.00002707282148
C           -0.41605334200921       -1.98994755380025       -0.00120327730509
N           -0.98496635811379       -2.98647811197923       -0.00052262051243
C           -0.28723584550328        0.40284662337767        0.00005579680814
H            3.79378749748099       -0.48341160673322       -0.00049199307841
H            3.68301421999673        1.81107773425731       -0.00077492322681
H            1.78428604158744        3.20819010067100       -0.00052779682387
H           -2.78455073063418        2.54729733995437        0.00026561026581
