18
 energy: -34.992598155619 gnorm: 0.000765235275 xtb: 6.6.1 (8d0f1dd)
N            4.62445382394354        0.93125103269504        0.00244235284150
C            3.52551634725885        0.60793114540481        0.00046899536236
C            2.16493911865128        0.20430498555330        0.00082896000161
C            1.94577291775384       -1.18621957161193        0.00047181949526
N            0.82326866275743       -1.86771723019636        0.00006946840519
C           -0.38317130920795       -1.35674431938713       -0.00024691064378
C           -1.55686772137339       -2.11047848420314       -0.00083224422424
C           -2.64760020478855       -1.25239522548361       -0.00122414322285
C           -2.21821479661768        0.09054983798765       -0.00086036809608
C           -3.05705973523419        1.21398913971224       -0.00124047729089
N           -3.76004302120409        2.12037131177031       -0.00108607197370
C           -0.81521398584454        0.11080642516509       -0.00019142875348
N           -0.09105200017377        1.19978149947738        0.00035971058159
C            1.22110782556004        1.24852485603392        0.00084185376961
H            1.61654031078644        2.25955872023038        0.00120668823783
H           -3.68087227821334       -1.55285858341675       -0.00177605518255
H           -1.59345882630367       -3.18290219769786       -0.00101625468480
H            2.83251770974977       -1.81314341553340        0.00049911267744
