20
 energy: -38.452993223406 gnorm: 0.000505078899 xtb: 6.6.1 (8d0f1dd)
N           -3.47761532479745       -2.25205368600212       -0.00139507323042
C           -2.78673913853643       -1.33665354890421        0.00007006464131
C           -1.93163423861972       -0.20849218499785        0.00025402536617
C           -2.54593967572068        1.05276301128958       -0.00041365967190
N           -2.02756409855806        2.25958898417441       -0.00023000134283
C           -0.75318070332861        2.60419939427905        0.00079779519183
N            0.37518152900447        1.92748442076644        0.00212528345317
C            0.50350510892605        0.62244759459229        0.00254113574177
C            1.73221205702700       -0.04291658221901        0.00385357929208
C            3.01151279729670        0.51957980022992        0.00474031631775
N            4.09375250187541        0.90478968744813        0.00661894624437
C            1.48865810660526       -1.44826400511136        0.00379696354698
N            2.44034229074328       -2.38419189173234        0.00483574758429
H            3.41035578868858       -2.11518888561415        0.00580049651775
H            2.20005551114544       -3.36026755787772        0.00465598834480
C            0.09497890063260       -1.66899557054714        0.00238441727502
C           -0.55137512324441       -0.45155788518310        0.00156774783403
H           -0.37799061157530       -2.63381339754485        0.00197802925518
H           -0.60434390328490        3.68159536811416        0.00062162875571
H           -3.63367829827927        1.05490151283981       -0.00124475681699
