20
 energy: -38.446096757582 gnorm: 0.000692957365 xtb: 6.6.1 (8d0f1dd)
N            4.18642608811200        0.84448696666119        0.00024028140513
C            3.04235701820771        0.75584930478104       -0.00171817579839
C            1.63020440314830        0.63586424425519       -0.00059025528836
C            0.95652109917273        1.86569119907311       -0.00003913329476
N           -0.31360426550395        2.17979580076796        0.00023242200020
C           -1.32648741746738        1.35402984206272       -0.00000089196400
N           -2.57449667815412        1.79621110289172        0.00016718038480
C           -3.37590226847745        0.72193080378442       -0.00015621229972
C           -2.69043028581776       -0.48950722850648       -0.00054861987974
C           -1.33476096928006       -0.16801524206467       -0.00050387021926
C           -0.24743666832036       -1.02982618365417       -0.00087789917828
C           -0.55801139608694       -2.41330148013692       -0.00163191286548
N           -0.79927166653379       -3.53516723914622       -0.00119950941838
C            1.13020770299099       -0.69223639223213       -0.00095292683260
N            2.02463228327182       -1.70507164762768       -0.00149062282740
H            3.01200273011463       -1.51209875816148       -0.00157118671010
H            1.71181448063743       -2.66128892912924       -0.00175774536573
H           -3.12163610841332       -1.47161028317542       -0.00084897978709
H           -4.44301740849311        0.85879882808122       -0.00011646711527
H            1.60424458229261        2.73910356707579        0.00013617405445
