16
 energy: -30.750806239012 gnorm: 0.000635700938 xtb: 6.6.1 (8d0f1dd)
N           -3.66116416928269       -1.21402348743696        0.00198397006084
C           -2.70168807441871       -0.58530228983554        0.00070363269150
C           -1.54294297849158        0.19934576773424        0.00106913172021
C           -1.48614224060659        1.60998499460717        0.00102491204640
N           -0.25443294811542        2.09902313228669        0.00098652251983
C            0.59026239718799        1.06427101896661        0.00104907840319
N            1.88172738096262        1.23817689141405        0.00097757022051
C            2.78190100477101        0.27269793988725        0.00102123957983
C            2.63212914419203       -1.11139629633828        0.00115533321102
C            1.45221754831426       -1.86585331607339        0.00124551211434
N            0.19611431900600       -1.48439699534095        0.00123330483563
C           -0.21063974485351       -0.23684233839727        0.00116334228693
H            1.56268120102143       -2.94583247529551        0.00135668012963
H            3.55118807721741       -1.68420503601919        0.00117230138421
H            3.79844629688850        0.65400894148274        0.00092894076581
H           -2.33232724669275        2.27541180045832        0.00092669613014
