18
 energy: -30.213110800086 gnorm: 0.000431263528 xtb: 6.6.1 (8d0f1dd)
N            3.95951941274058        0.98012839392245        0.00168923446404
C            2.88746960176038        0.57258366724239       -0.00091993420640
C            1.56351546490930        0.06973044525270        0.00012750879792
C            1.45054118793966       -1.33230050815800       -0.00009459147104
N            0.41394396040429       -2.13609780096986       -0.00030102951008
C           -0.86399897902145       -1.79412483836204       -0.00043877548563
C           -1.47438144597434       -0.55329235497542       -0.00039710413716
C           -2.85062631016727       -0.30997016162956       -0.00058702637603
C           -3.06426861392609        1.06646306648456       -0.00046060211540
C           -1.84110006402125        1.72979652548055       -0.00020767358847
C           -0.81457023936858        0.77995584206878       -0.00012761839030
C            0.53905482417548        1.02516063907038        0.00008705319369
H            0.85105079056354        2.06434715118676        0.00009779020722
H           -1.69868860414944        2.79454690244399       -0.00008112981066
H           -4.02790795502936        1.54409245814099       -0.00056263823656
H           -3.61256926793057       -1.06702504602084       -0.00079865222585
H           -1.52529484319116       -2.65805723483942       -0.00063603530111
H            2.39554765158630       -1.87205458893844       -0.00019096730815
