20
 energy: -33.662922200999 gnorm: 0.000573257112 xtb: 6.6.1 (8d0f1dd)
N            2.96824072069747        2.19138215330487       -0.02039571263761
C            2.20497614616225        1.33026545643739       -0.02440567385481
C            1.31228708042139        0.26039248052586       -0.02623431068918
C            1.69249325856294       -1.11052508736405       -0.03522761842604
N            2.96182221179731       -1.55420843915468       -0.06530998519323
H            3.15757244835803       -2.53760422779656       -0.01614181300592
H            3.72309108389517       -0.89949167362306       -0.02113620390986
C            0.52876350991451       -1.89381766187505       -0.02771534514687
C           -0.58256692119933       -1.06154874103267       -0.01444610580053
C           -1.91594866234439       -1.45581094188320       -0.00433582759368
C           -3.04054750184543       -0.64325548250839        0.00953699457700
N           -3.18143291297604        0.67026191401225        0.01872699966026
C           -2.23931128295526        1.58659952412126        0.01517515575707
C           -0.84766131536324        1.48998196761837        0.00022677502981
C           -0.08948090063168        0.33460509246327       -0.01290954246465
H           -0.29717329785308        2.42388661912323       -0.00108766031083
H           -2.64561520508505        2.59490679893128        0.02537490136556
H           -4.00027342500212       -1.15425720769299        0.01481520724871
H           -2.09391100396702       -2.52486437627807       -0.00781068946919
H            0.50677121811348       -2.96773660592905       -0.03194556683587
