21
 energy: -38.176734420201 gnorm: 0.000772997288 xtb: 6.6.1 (8d0f1dd)
N           -4.09978702949569       -0.40288476959178        0.00023931206297
C           -2.96799622815498       -0.58902960038153       -0.00209532007860
C           -1.57184993233069       -0.82724323283404       -0.00021787768844
C           -1.18466675747913       -2.17455620088548        0.00244225507810
N           -0.00018285768878       -2.74299738146305        0.00365135817236
C            1.18436867674644       -2.17469207081918        0.00250961425995
C            1.57171275537763       -0.82742982804978       -0.00009614894742
C            2.96790773595419       -0.58939991055304       -0.00213964749701
N            4.09987979254312       -0.40339691465837        0.00032717921285
C            0.74588361045733        0.30405623325637       -0.00224193516012
C            1.14884232373419        1.62399293349701       -0.00491158727822
C            0.00013316413240        2.44662002269700       -0.00654993740728
N            0.00021360402969        3.78706810828136       -0.00911163146539
H           -0.86542766687530        4.29654794087981       -0.01034230166876
H            0.86591576997448        4.29644459894360       -0.01029361304652
C           -1.14867566010393        1.62413024663584       -0.00497933945954
C           -0.74587951894701        0.30414541203975       -0.00230464335881
H           -2.16457940848258        1.97179333051675       -0.00571485564998
H            2.16478826985048        1.97153455311004       -0.00558535903628
H            1.99552933128305       -2.89868305589305        0.00375587230514
H           -1.99591015852503       -2.89845296452815        0.00368137515095
