19
 energy: -33.940519978687 gnorm: 0.000427115789 xtb: 6.6.1 (8d0f1dd)
N           -4.10771863495417       -0.98004317581185       -0.00676492955112
C           -3.12163562990884       -0.38936008933199       -0.00397791838217
C           -1.91396920395484        0.30845069386754       -0.00069126699057
C           -1.73217033252940        1.70084623100773        0.00036623392368
N           -0.45534667062887        2.06943304927196        0.00274247305267
C            0.28130320569397        0.95294719406438        0.00224049532747
N            1.58287267562220        1.02349788154278        0.00219824568992
C            2.45428242693912        0.02610852790533       -0.00067984304535
N            3.73927185609170        0.45168605354537       -0.00210186864066
H            3.89967189915762        1.44347955310237       -0.00651898136019
H            4.51438646714543       -0.18448898616040       -0.01251819775351
C            2.23314513388415       -1.37585335772281       -0.00036420024380
C            1.04930448336648       -2.07288948902085        0.00134344195557
C           -0.25664335183226       -1.57533029156285        0.00165106873277
C           -0.61758040298552       -0.25005084657706        0.00068107589202
H           -1.06093227919124       -2.30236343184506        0.00238650559834
H            1.13717985051694       -3.15233767082622        0.00183247173521
H            3.13929054793762       -1.97038373501186       -0.00144757242334
H           -2.51111994826998        2.44333166676369       -0.00077268121710
