21
 energy: -42.964100865278 gnorm: 0.000580075177 xtb: 6.6.1 (8d0f1dd)
N           -4.71489005155287       -0.20512367510434       -0.00112147798307
C           -3.59157042810236        0.02610109001556        0.00105729545891
C           -2.20034986564832        0.30334662410472       -0.00023467166407
C           -1.89491782535195        1.66960693990142       -0.00023470764032
N           -0.75722966483622        2.31778372135424       -0.00026942240022
C            0.44161151414543        1.80346129594802       -0.00042662673263
N            1.51638259144453        2.58732578553431       -0.00044415063350
C            2.58759726294890        1.80244296400078       -0.00071982637507
C            2.27728518848594        0.42895198959257       -0.00092816257031
C            3.22085355232726       -0.60511940414497       -0.00152435297959
N            4.03049565853243       -1.41827184650713       -0.00130892593758
C            0.87330545363645        0.34999570878082       -0.00070715539384
C            0.07251759976997       -0.77986741498543       -0.00064319507575
C            0.72193425798305       -2.04316510126789       -0.00009773687195
N            1.17444818567731       -3.09673021478582       -0.00121346485048
C           -1.35011813505552       -0.83484466968576       -0.00035832365115
N           -1.93013728055995       -2.05086074484097       -0.00012780964673
H           -1.36816306632339       -2.88643449454582       -0.00022837182763
H           -2.93320494809073       -2.13641882109506        0.00005902939891
H            3.57560370123116        2.22772784067843       -0.00083805003910
H           -2.75618369386111        2.33279678205226       -0.00008196508483
