20
 energy: -37.656031177844 gnorm: 0.000849975536 xtb: 6.6.1 (8d0f1dd)
N           -4.06350706269667       -1.16019485264598       -0.03404027174994
C           -3.13127373661477       -0.48843879783778       -0.02145588965232
C           -2.00623458442314        0.33627966133832       -0.00588316289524
C           -1.99038406497072        1.74353749419764        0.01218041072025
N           -0.77602753656742        2.27793335192497        0.02489138425796
C            0.10040467635486        1.26368896573707        0.01468514594989
N            1.37826358445051        1.47637429779574        0.01069107842280
C            2.33617822038791        0.53822255330395       -0.00281624265690
N            3.57451526317084        1.08332742116486       -0.01039147024720
H            3.63673659283608        2.08559184985827       -0.03181678561735
H            4.40522372652082        0.52444709051749       -0.05519738801157
C            2.22202644473696       -0.85507323372678        0.00127997405241
C            1.06835908615878       -1.65279815523703        0.00753882555843
N            1.21676541467349       -2.99744735676643        0.01197149272198
H            2.11709632741616       -3.43572742265510        0.04989942693802
H            0.38216616206950       -3.55618205341009        0.03264394251396
N           -0.21631178636637       -1.28534601356570       -0.00129574050016
C           -0.65575841596523       -0.05894655770029       -0.00093855337499
H            3.16033662963512       -1.39845919026784       -0.00131510811789
H           -2.85843580950681        2.38075589197463        0.01616996248798
