21
 energy: -42.190857069410 gnorm: 0.000425852614 xtb: 6.6.1 (8d0f1dd)
N           -4.45415557764957       -1.06125309457953       -0.00699878713756
C           -3.31594497283324       -0.91076053384581       -0.00264175069961
C           -1.91422258393711       -0.71472326136611       -0.00045564281838
C           -1.17484583991894       -1.90645720279053        0.00139767983188
N            0.10602872279078       -2.16345948168817        0.00423556942060
C            1.06556534750464       -1.26379777820488        0.00622196950297
N            2.34506060499292       -1.58954860980366        0.00911765008313
C            3.00553690560534       -0.40951521552625        0.01042316698395
N            2.23702102228823        0.70052919736371        0.00854549840223
C            0.99048964983901        0.24384358923311        0.00582352910469
C           -0.13407628502120        1.06022989080944        0.00317522570818
C            0.10963107646537        2.45429423107678        0.00353784567212
N            0.26002251478709        3.59190106659871        0.00366898030188
C           -1.48582003840699        0.64036654624300        0.00022968084009
N           -2.43462031320041        1.59820880047360       -0.00198815839375
H           -2.17169606622589        2.56983773213414       -0.00157349892108
H           -3.40993852882837        1.35017936854121       -0.00408868185965
N            4.33015789216889       -0.34813704479390        0.01336127425220
H            4.78083475807225        0.54980706867354        0.01422733718294
H            4.85903104408422       -1.20225058761327        0.01467097184540
H           -1.77881240077703       -2.81134327903514        0.00032793939781
