22
 energy: -36.301849808579 gnorm: 0.000813746475 xtb: 6.6.1 (8d0f1dd)
N           -3.71399504442023       -0.29065825671705        0.07240483789715
C           -2.37314385343488       -0.06617376062922        0.02622834915298
N           -2.11030295019830        1.25103307121353       -0.00742527599623
C           -0.92497258260258        1.80470070086557       -0.05632834418188
C            0.34072857884694        1.24205702461439       -0.01826740446834
C            1.56641251814980        1.92784863565990       -0.03003089438419
N            2.60555759784195        1.10318476980989        0.03321628150669
C            2.11455361415221       -0.15076627046784        0.07704376562971
N            2.97970245712256       -1.25210978184993        0.12916797239162
H            2.85798275711261       -1.80109698396121        0.97406376460568
H            3.93590133824517       -0.91695357827329        0.07873983060551
C            0.71521001713719       -0.16963651693637        0.03356065552097
C           -0.14934543649629       -1.27258040389413       -0.05707068772669
N            0.41482755664292       -2.50699432668798       -0.12014920850499
H            1.39303982857667       -2.54610467975280       -0.36494542135461
H           -0.16447115241909       -3.28970671935775       -0.37270545755318
C           -1.54457271344306       -1.18787949553687       -0.04478785859915
H           -2.06722040947863       -2.13789161849781       -0.08916495748767
H            1.71278572189254        2.99185055654450       -0.06872792496074
H           -0.96761805994178        2.89074934917024       -0.11625721254578
H           -4.08730124120517       -1.20727462617646        0.23747250278231
H           -4.30495898738048        0.51330504296042        0.18927136907079
