19
 energy: -29.135818598450 gnorm: 0.000549796869 xtb: 6.6.1 (8d0f1dd)
N            3.00271093403707        1.14181098101395        0.09302157211383
C            1.82641524852121        0.43993302117150        0.02743070685511
N            2.00299293124395       -0.86763196538537        0.01433551683084
C            1.09865779077035       -1.82997253624131        0.01186682454265
C           -0.28661023117233       -1.79897367798529       -0.00008760281217
C           -1.10878175921158       -0.67978174172558       -0.00303450596415
C           -2.49374384106910       -0.65249700905739       -0.01817143008744
C           -2.91944001827204        0.68475109536719       -0.00900591777125
C           -1.82467058498477        1.52759350396013        0.01142313759193
C           -0.65677610191223        0.74345756013334        0.01604427669246
C            0.63188446566900        1.20154189553655        0.03125440205045
H            0.76426961127809        2.27869023897580        0.04679344714217
H           -1.84644373183806        2.60159238402912        0.02271261438833
H           -3.94845969452208        1.00140568364096       -0.01668133477067
H           -3.13487540847235       -1.51442927473617       -0.03401667498919
H           -0.78869054560253       -2.75952543478381       -0.01008710310036
H            1.56066094952698       -2.81411337730636        0.01042684526555
H            3.84100501835593        0.60586837089339       -0.05338946756886
H            3.01870969135450        2.11207510959939       -0.16553247290920
