22
 energy: -32.288362032301 gnorm: 0.000514626745 xtb: 6.6.1 (8d0f1dd)
N           -1.91588693994423       -2.44231726782883        0.07023979774679
C           -1.43714520894596       -1.14355033188274       -0.00162617683741
C           -2.23907071000531       -0.00047168660469       -0.00088835892864
C           -1.43761156345175        1.14293383434232       -0.00001085728343
N           -1.91687036467685        2.44150540565472       -0.07196032537777
H           -1.29679362926291        3.14606724996261        0.29782109921291
H           -2.86634756243879        2.54921648102475        0.25241333502648
C           -0.08584735254598        0.75079810160837       -0.00601489202342
C           -0.08554214072435       -0.75086344707954        0.00461363666746
C            1.00647731837351       -1.58311597638235        0.01973096099264
C            2.36218016544908       -1.25623406115442        0.01913967176254
C            2.94719456464206        0.00058562289601       -0.00043595055697
C            2.36167122589242        1.25716661009345       -0.02011355661350
C            1.00583527207677        1.58349575864643       -0.02094143774806
H            0.79009467814466        2.64740416423892       -0.04377148273113
H            3.04569644569072        2.09648415998915       -0.03606945025620
H            4.03212224658579        0.00080675171392       -0.00034132984655
H            3.04654486213296       -2.09527261881510        0.03521483071517
H            0.79116641532115       -2.64711226007531        0.04252340748999
H           -3.31559896447138       -0.00069120390655       -0.00098221617895
H           -2.86526396675568       -2.55041528233506       -0.25429830610215
H           -1.29545902588582       -3.14662600240605       -0.29943480982986
