23
 energy: -36.033049501264 gnorm: 0.000408803445 xtb: 6.6.1 (8d0f1dd)
N           -3.42893095178687        0.00189579658691       -0.06506839177033
C           -2.05653041198856       -0.02989371446156       -0.03085998898309
N           -1.53489125682460        1.18725636171519        0.01640880053525
C           -0.25684799383183        1.53288211822435        0.05667567187955
N           -0.09367322950728        2.88090945673232        0.13051440853840
H           -0.91705291702090        3.43124651865377        0.29838213754826
H            0.80746090595558        3.26813716501945        0.33683656214875
C            0.89632576170407        0.72565918435933       -0.03036112589653
C            2.21671173136258        1.19246784215569       -0.10663235683400
C            3.07443919897563        0.10346155262079       -0.15771546076742
C            2.32290269433182       -1.06322414196926       -0.09808109544129
C            0.96573252074177       -0.72518649500788       -0.02649759320152
C           -0.11313589736995       -1.63080353323623        0.05723963042276
N            0.18074584425964       -2.96452205948841        0.08670842528042
H            1.12449190741228       -3.23927950069100        0.28882422129937
H           -0.54740423154162       -3.61315535616796        0.33029773510710
C           -1.46172967951434       -1.29206325866284        0.03974883277873
H           -2.15674671143203       -2.12450230049364        0.07058965080336
H            2.73909841464299       -2.05543310519315       -0.12868025786174
H            4.14696563362325        0.15296221741632       -0.22966315712833
H            2.53265359929161        2.22039587165183       -0.14513613122423
H           -3.92707227737107       -0.81046369387581       -0.38386062570474
H           -3.83312781641202        0.89920989741173       -0.27313710802868
