19
 energy: -33.141528787968 gnorm: 0.000737800573 xtb: 6.6.1 (8d0f1dd)
N           -2.32326022942227       -2.29068149748683        0.06931652577299
C           -1.42767311739044       -1.26247163310838        0.01713655866284
C           -0.06321256408898       -1.62794031810053        0.03003853456560
C            1.00199619990458       -0.77645524112464        0.01454540691203
N            2.29546711645381       -1.16610833567296        0.02085453557395
C            2.97838624846326       -0.03073050368455       -0.00498177526486
N            2.28475511062603        1.11206530443165       -0.02846832163553
C            1.00799162882034        0.72681469013906       -0.01706296096036
N            0.01527441099062        1.57620515268345       -0.02371465354119
C           -1.27610371303771        1.27514146101742       -0.01467115599318
N           -2.06100222739273        2.38625529784968       -0.06523378267696
H           -3.04483979271392        2.33970205622704        0.12658076097448
H           -1.58654256889701        3.26796071643379        0.02388723016721
C           -1.93421690854365        0.03060790197980       -0.00214074462816
H           -3.01727660319001        0.09946556978035       -0.00806675057222
H            4.05448768072427       -0.02534480093517       -0.00828382201270
H            0.16513954313318       -2.68671045232503        0.05204772371893
H           -1.99763880165441       -3.23119048944192       -0.06162886449944
H           -3.29916263588495       -2.11114891096223       -0.08506236096340
