21
 energy: -36.583908152114 gnorm: 0.000630771307 xtb: 6.6.1 (8d0f1dd)
N           -2.61732830513033       -2.30864499011977        0.08422500892906
C           -1.74221510206575       -1.25741896446811        0.02230846023379
N           -0.47554147907647       -1.64500565746495        0.03679248057480
C            0.56640361483022       -0.83306268184344        0.03798519625550
C            1.88913196235461       -1.22202471828926        0.05901910757290
C            2.64728160622205       -0.03182671075616        0.03913676814199
N            3.98590096007830        0.06121865562738        0.02991371121982
H            4.39859921235219        0.97572888858977        0.07558279381809
H            4.55726324095571       -0.75574786375911        0.14309369000458
N            1.89663718004453        1.08648663420292        0.00675970323969
C            0.62516499174984        0.68929971529431        0.00501601248994
N           -0.34393957884273        1.55810284983130       -0.01201280135751
C           -1.64990037922019        1.26688304043163       -0.01115505696734
N           -2.42015124446820        2.39316677237292       -0.07917428924111
H           -3.39477469104993        2.35347332343685        0.15854030085254
H           -1.93035905767195        3.26128775110599        0.05285802743224
C           -2.29634568649161        0.03353159345539        0.00297335099118
H           -3.38033934054376        0.07313077478578       -0.00202127052490
H            2.27564733815496       -2.22102715638323        0.08605998727047
H           -3.57445655462218       -2.17512832879653       -0.18874197966031
H           -2.21271299385923       -3.21860792365367       -0.05570712177548
