20
 energy: -37.664753206335 gnorm: 0.000774761972 xtb: 6.6.1 (8d0f1dd)
N            3.61848193532521        1.78964386367802       -0.01564163867115
C            2.69328771292096        1.10636665821688       -0.01842709554290
C            1.63765714763873        0.19502363069792       -0.02384029997088
C            1.82952456421448       -1.22826975278459       -0.04642357180414
N            3.03283300987540       -1.81040688281816       -0.06257628617350
H            3.86276898474224       -1.24118686911179       -0.05923734774672
H            3.11858100649762       -2.81122283676097       -0.07945989633316
C            0.58520112991768       -1.86757656942301       -0.04831936107032
C           -0.41442658840521       -0.90627775331913       -0.02613845749898
N           -1.70017517504208       -1.16638988857680       -0.01552692667373
C           -2.66085661653732       -0.24032619760968        0.00805359317319
N           -3.90881294631339       -0.74661876375997        0.03133079760834
H           -4.03624234344815       -1.74185798500956        0.01149115215200
H           -4.68990194394214       -0.11640868675590        0.03183596671032
N           -2.62515974069007        1.09732699893280        0.01191269273760
C           -1.57106787674307        1.87636322010822        0.00628800394843
N           -0.27106174604883        1.65208474127115        0.00062086596775
C            0.27196947623252        0.45318147285117       -0.01247347627068
H           -1.82195532993722        2.93498777326440        0.00832472142092
H            0.42549130064262       -2.92830072319087       -0.06249351026237
