20
 energy: -32.844249682383 gnorm: 0.000293387467 xtb: 6.6.1 (8d0f1dd)
N           -1.91473771233620       -2.43037463656026        0.05832712789702
C           -1.45033236739200       -1.14516986900999       -0.00491709698724
C           -2.25061266184560        0.00061950471952        0.00141267084942
C           -1.44967734837258        1.14595521395661        0.00675768146064
N           -1.91343152696175        2.43142204674939       -0.05594393099007
H           -1.27491654178511        3.16152127591599        0.21208405404485
H           -2.87194131221040        2.57836725371290        0.21408638700897
C           -0.09324783085509        0.74909968406502        0.00168678163861
C           -0.09367373868748       -0.74908254947100       -0.00147936951142
C            1.01912821154733       -1.54534452009473       -0.00824848634679
N            2.31492830361382       -1.22338654013392       -0.01510079662795
C            2.80679729918963       -0.00081386346558       -0.00154506713380
N            2.31563659779371        1.22203717544195        0.01232036017211
C            1.02001188207457        1.54473155641571        0.00684377801994
H            0.87162969748738        2.62417107420847        0.00451966649597
H            3.89800930426093       -0.00112488607298       -0.00199284128294
H            0.87013629990612       -2.62470154458689       -0.00603267882202
H           -3.32664738215631        0.00092411987633        0.00204732034139
H           -2.87365490240478       -2.57677375940977       -0.21055171863363
H           -1.27695780326620       -3.16083033425674       -0.21047963469306
