19
 energy: -29.134809403623 gnorm: 0.000846275870 xtb: 6.6.1 (8d0f1dd)
N            3.63405626559007        0.00011093796164        0.03231006380844
C            2.27704138716668        0.00007689025773       -0.01059934661779
C            1.45968775119015       -1.14431798072472       -0.00504196124848
C            0.13206322387043       -0.74521752791567        0.00089547720220
C            0.13202615927181        0.74526482953105        0.00088602274155
C            1.45963085306849        1.14443120378253       -0.00505899528655
H            1.81148754489239        2.15986215791435       -0.00645239544301
C           -0.98466913341030        1.56699640239944        0.00193268821422
C           -2.32151054697113        1.18477679367078        0.00044660995998
N           -2.89938802886125       -0.00005172664653       -0.00061902892895
C           -2.32145162089953       -1.18485149264193        0.00045897832855
C           -0.98459120220128       -1.56700460055322        0.00195119780097
H           -0.79024373004763       -2.63371525129289        0.00316913694125
H           -3.04977428380750       -1.99286681024823        0.00029930798960
H           -3.04987337249576        1.99275590658962        0.00027647874947
H           -0.79037470182732        2.63371674495471        0.00313391949642
H            1.81159492979466       -2.15973145179595       -0.00641984149640
H            4.11902760292982       -0.85690992861731       -0.17031374885491
H            4.11898500594719        0.85715282937459       -0.17032679745656
