20
 energy: -32.857255146243 gnorm: 0.000734287137 xtb: 6.6.1 (8d0f1dd)
N           -3.88574273297523       -0.50408924229474        0.00614012651127
C           -2.55097706498979       -0.28880327041394       -0.02759348440481
C           -1.94165767162260        0.99105338697515       -0.00083613769597
C           -0.57584634108854        0.83093572171394       -0.00887827194800
N            0.29226615381216        1.83340985442522       -0.00630002573545
C            1.59492690986574        1.71703107872855       -0.01211105291870
N            2.44088042467072        0.70157707479800        0.00262060138238
C            2.16899594142392       -0.59486709678456       -0.00326086936926
N            3.28886867885711       -1.37670035134203       -0.03141392819955
H            3.22984813670736       -2.35515580200995        0.18560988715513
H            4.16532260027873       -0.90571600573111        0.11111940987150
C            0.92085303098773       -1.25550721620294       -0.02709599423799
C           -0.31354467048387       -0.65593155817155       -0.03286514488222
C           -1.56094647085095       -1.27543185813287       -0.04647832970244
H           -1.73462653066279       -2.33592721853632       -0.06769712615913
H            0.94924689813355       -2.34031118394746       -0.03711303500106
H            2.10933137623088        2.67729633239227       -0.01639974345803
H           -2.46106087873079        1.92951131727503        0.01766508601622
H           -4.50916151517239        0.27232053326169       -0.12522099051431
H           -4.24116043609090       -1.42818211140239       -0.16451309300961
