17
 energy: -34.495959471004 gnorm: 0.000670657911 xtb: 6.6.1 (8d0f1dd)
N            1.52199168626034        3.32807763926391        0.00142177891520
C            1.33659601145145        2.19717264808041       -0.00193859244947
C            1.14403409878915        0.79445689598905       -0.00018718281601
C           -0.16785448904853        0.31292035469649        0.00109140012356
N           -1.26620287020583        1.04332341983468        0.00240340805010
C           -2.27683433557599        0.13699526818997        0.00531987973746
N           -1.90702412116379       -1.16078798591901        0.00601452627284
C           -0.58645025268229       -1.13989590302757        0.00306426436302
N            0.15033636462835       -2.22982637595895        0.00151387392198
C            1.46045407853364       -2.25533377678319       -0.00141655067300
N            2.40593651004592       -1.32922493003624       -0.00107916566229
C            2.28265045402144       -0.02279016643765       -0.00003961182667
H            3.23995648385235        0.49473697222608        0.00052007060740
H            1.86706057795536       -3.26487759823093       -0.00404324078844
N           -3.54622819592160        0.51069995047122        0.00740047064201
H           -3.77045062288486        1.49070884247137        0.00679053297183
H           -4.26517371065511       -0.19177561222969        0.00954987211050
