21
 energy: -32.564614681384 gnorm: 0.000622406034 xtb: 6.6.1 (8d0f1dd)
N           -1.95408760901705       -2.43511450442535       -0.06629421703132
C           -1.46445435671420       -1.14852633568345        0.00227350957742
C           -2.24353418072693        0.00744196240468       -0.00363140961319
C           -1.42011204755307        1.13989240895444       -0.00470947199495
N           -1.87506267742527        2.43656848971707        0.06329624700322
H           -2.82326574053767        2.58002256443390       -0.24563601004291
H           -1.23004560224636        3.14859941438865       -0.23881414690025
C           -0.07510324500284        0.72284429149875        0.00196709511513
C           -0.10180593229418       -0.77667522778388       -0.00232524959913
C            0.98818744834001       -1.60158921388500       -0.00699037443198
C            2.33984688712934       -1.22820501477090       -0.01190784157314
C            2.87396630594082        0.04880629012279       -0.01385966040655
N            2.33524102084449        1.25925724015570       -0.00020330566874
C            1.03725979719904        1.53168723983609        0.01193559640959
H            0.85675772139770        2.60636318956189        0.03444970017629
H            3.96153447345685        0.10093652356799       -0.02755485801446
H            3.05723694849203       -2.03870161254201       -0.02060977193542
H            0.79727296188217       -2.67016917994692       -0.01789644448625
H           -3.31972160613753        0.02782347531168       -0.00592053189206
H           -1.33955295712022       -3.15847422413526        0.27158243960022
H           -2.91173753150713       -2.54485319018088        0.22759325800844
