18
 energy: -29.415309154606 gnorm: 0.000437436498 xtb: 6.6.1 (8d0f1dd)
N           -3.03768735800277       -1.08717568281085        0.07195091488880
C           -1.84187303858572       -0.43306268616903        0.02038501223452
N           -1.98078447136441        0.88713405357732        0.00966790046879
C           -1.06032234688207        1.82387170548916        0.00485810398884
C            0.32890505582483        1.76729526880327       -0.00336180494475
C            1.10966700195355        0.62501444000228       -0.00335935693066
N            2.44016078147954        0.64896974617687       -0.01490021808531
C            2.84825341672306       -0.63338977891941       -0.00884688087920
C            1.80765535713834       -1.54484118812567        0.00594670625949
C            0.62599925314496       -0.78674684761113        0.00980746309073
C           -0.67424351458759       -1.22471858530151        0.02131499147418
H           -0.82955561867625       -2.29862246433387        0.03245132018826
H            1.88439868578722       -2.61452987935538        0.01345344775676
H            3.90241452634016       -0.85212422920130       -0.01555984473810
H            0.86786239020273        2.70503487082181       -0.01291925973011
H           -1.49934615270216        2.81881304455752        0.00137927743209
H           -3.09217468354554       -2.07333489154956       -0.10476634961439
H           -3.86567260794783       -0.52864699695048       -0.03865338305991
