23
 energy: -36.020203421802 gnorm: 0.000739329668 xtb: 6.6.1 (8d0f1dd)
N            3.69953222164671        0.32991345911102        0.05125680178043
C            2.35702800101039        0.07605212012037        0.03065079613440
N            2.10956470718103       -1.23707913968789        0.01131098526559
C            0.92261836097337       -1.79801135699009       -0.04683257075651
C           -0.35243103782765       -1.26334327507304       -0.02658824645925
C           -1.53585758880074       -2.02470951534665       -0.04862799565259
C           -2.61642750617812       -1.17092017961244        0.02189511463704
C           -2.15360222017029        0.15473570190184        0.08089444730526
N           -2.97994207373997        1.29649668350211        0.15559526085716
H           -3.95720613646332        1.02608010145915        0.14263282322249
H           -2.79688044884181        1.84791574826191        0.98767781032049
C           -0.75486747076990        0.14433980231791        0.03074757405518
C            0.11285764022267        1.24858552814411       -0.05613661394128
N           -0.45127680724768        2.49005052795743       -0.12159674560727
H            0.13738064912671        3.25840456959306       -0.39760653039740
H           -1.41824660594366        2.52623322263611       -0.40738425555264
C            1.50670466942746        1.18239323526472       -0.04116947715302
H            2.01455277010324        2.14052597391126       -0.09196802348766
H           -3.65450424853315       -1.45748796893948        0.03223003754347
H           -1.57512193579599       -3.09752699908656       -0.09605817121481
H            0.98097521416932       -2.88438658813592       -0.09455357333306
H            4.04286931761433        1.24530091411561        0.27857166220524
H            4.29613906463715       -0.46253134162450        0.21340107522869
