19
 energy: -33.130521047365 gnorm: 0.000457645756 xtb: 6.6.1 (8d0f1dd)
N           -2.21877728531721       -2.31368713214538       -0.07421353886846
C           -1.36503230868712       -1.25268333272899       -0.01989337805033
N           -0.08638559205216       -1.62774374020706       -0.02368462430487
C            0.94139606371421       -0.81596539770789       -0.01481718963515
C            2.28327565492292       -1.18800057319091       -0.01854544375014
C            3.01100280819951       -0.00288178629296        0.00760730230125
N            2.26692968950398        1.10988602075980        0.02908630542374
C            0.99291940162046        0.71426699700069        0.01564974469481
N            0.01699779302318        1.57163129194884        0.02088672459737
C           -1.28695244659578        1.27635569566372        0.00549023396843
N           -2.06252193409519        2.39330251204894        0.04966578009328
H           -1.58289548623766        3.27143346418812       -0.04418848699031
H           -3.04648591518148        2.34973570201470       -0.14152341006500
C           -1.92393345909526        0.03279867566898       -0.00995350660774
H           -3.00814472059389        0.06590383718433       -0.01482470991524
H            4.08477270066693        0.08730762912467        0.01305789741232
H            2.67393393260506       -2.18536815328215       -0.03841863200361
H           -3.19536665542862       -2.19641659809486        0.12393639379205
H           -1.80892390367185       -3.22428219715263        0.03824132860761
