21
 energy: -32.577720398039 gnorm: 0.000737695654 xtb: 6.6.1 (8d0f1dd)
N           -2.33267820315761       -2.29233010967129       -0.10174802312806
C           -1.42077817477149       -1.25638747484964       -0.02151287837354
C           -0.07112278295460       -1.61879903270105       -0.03131969199066
C            1.03705146410172       -0.79987379722473       -0.01683417410913
C            2.38464835861644       -1.17649477169860       -0.02364944534586
C            3.11643267890253        0.00317880551981        0.00984861820355
N            2.35659793029754        1.10389963737796        0.03833351579337
C            1.08058068289104        0.68337743204638        0.02266395576566
C            0.02817677560086        1.56514484364942        0.03465966315804
C           -1.34543739000473        1.28589951712438        0.01230925282486
N           -2.18521037558491        2.37840677062235        0.08388000062312
H           -1.78730200773690        3.27651140752744       -0.13130882860584
H           -3.14499754288108        2.25355276974410       -0.19026356364681
C           -1.95443046506379        0.03405937623778       -0.00824731545047
H           -3.04034948126939        0.06554467064825       -0.01442674332739
H            0.31105928392171        2.61057319114560        0.06324430071461
H            4.18946146620745        0.09797578013284        0.01493633517194
H            2.77436223242777       -2.17597251229735       -0.05111785963194
H            0.12916663787903       -2.68550467876720       -0.05474313832382
H           -2.00069935079833       -3.21284957983511        0.13120748891540
H           -3.28159771832330       -2.09957429573133        0.17131143676299
