23
 energy: -36.016282122300 gnorm: 0.000560426993 xtb: 6.6.1 (8d0f1dd)
N           -2.72069054711201       -2.31036590972177       -0.08384270048255
C           -1.81437587063545       -1.26697560883602       -0.00927912156535
C           -0.45535186023584       -1.62160644309011       -0.03324133734479
C            0.63466341634444       -0.78477170711646       -0.02216277578766
C            0.62550505709274        0.71935602659984        0.01501328795939
N           -0.39114200665436        1.55932726029075        0.01991286127190
C           -1.67563001736217        1.25952905033093        0.02263028200608
N           -2.48204069093829        2.37980842145885        0.10659847262823
H           -3.41559802639721        2.31891339811320       -0.26365619345823
H           -1.99587778263861        3.24450920913070       -0.06876639835338
C           -2.33534396927538        0.01913990077701        0.01739110210707
H           -3.41854383171296        0.08352229697584        0.03581527283392
C            1.94646212795373        1.12448038423927        0.01877223595601
C            2.77146227018854       -0.01848737833930       -0.01656377778465
N            4.13212508051250        0.00147252600148        0.02942576443822
H            4.59517491361574        0.87129484583259       -0.17187147525161
H            4.62541507331166       -0.83846848277631       -0.22158184713049
C            1.97409666007876       -1.16705860352931       -0.04219813918430
H            2.33719743588673       -2.17868881344200       -0.07346183021454
H            2.28758131584155        2.14144859667319        0.04494576044258
H           -0.24538600729830       -2.68655725939721       -0.06019459104252
H           -2.38269658443413       -3.22180370951725        0.17782930879523
H           -3.66612694693164       -2.11332424845789        0.20086327766143
