22
 energy: -41.123560228907 gnorm: 0.000591991626 xtb: 6.6.1 (8d0f1dd)
N           -4.33202510394130       -0.09744460025603       -0.06624136813535
C           -3.18163171168575       -0.04667654810585       -0.03617622881044
C           -1.77649649518549        0.01691560238334       -0.00469849862185
C           -1.11769983713715       -1.25079120385035        0.01092091952599
N            0.16650862698673       -1.55490236866304        0.01306437663358
C            1.18000938583774       -0.72518984331421        0.01590161260561
N            2.43689111412950       -1.14197919706820        0.01073032312897
C            3.16914412733931       -0.00376041185874        0.02648333359474
N            4.50173849436750       -0.04131202864287        0.02438417267530
H            5.02058526106199        0.81717227272636        0.04485239705252
H            4.96260634431318       -0.93256355875343        0.01869533681171
N            2.48679078515797        1.15309214556550        0.04164149786929
C            1.20149862092086        0.77823323541429        0.03292092515927
C            0.14046977524447        1.64559186714991        0.03200032573826
C           -1.22373804466795        1.31733710601200        0.00907829255745
N           -2.09049532631670        2.36148779392969        0.00417859059538
H           -3.08312366804335        2.20771791507610       -0.02822052200987
H           -1.74153383242519        3.30190043708504       -0.00397270532337
H            0.38794556354794        2.69993311715863        0.04291305876180
N           -1.90361401361768       -2.35281558155940        0.02050544548518
H           -1.43808261539787       -3.24281338243687        0.02445672917042
H           -2.90616655658874       -2.29688943549189        0.01636258003538
