20
 energy: -32.859382522439 gnorm: 0.000504201913 xtb: 6.6.1 (8d0f1dd)
N            3.34674695061335        1.40165666707996       -0.08458385914432
C            2.22004179948946        0.61879395499745       -0.02442853209699
C            0.98833904107979        1.26923198739455       -0.03008196504841
C           -0.26901478684403        0.69142975563142       -0.02554125989398
C           -1.50039766946076        1.32431357838789       -0.02844048837390
C           -2.46914250603382        0.30321359268125       -0.00486074518646
N           -1.93141738100280       -0.93187171373196        0.01276537162398
C           -0.61059834804974       -0.77940377266544       -0.00088279541186
N            0.17614351327409       -1.82346260714678        0.00079056636948
C            1.49616023997917       -1.80170252981071       -0.01356806765517
C            2.41919995097575       -0.77485045688347       -0.01881115186644
H            3.45832943887322       -1.08545453161881       -0.02117028093918
H            1.91494741111314       -2.80547302974684       -0.01317386181482
N           -3.80724351250877        0.45656697840440        0.04152502977569
H           -4.21634104837970        1.35131390456129       -0.15894915019681
H           -4.36690901739824       -0.37127347622382       -0.06511456348976
H           -1.69542382851517        2.37973207631571       -0.04512320077317
H            1.01767723910902        2.35472050846852       -0.03832192654409
H            4.23313180415898        0.98023834145163        0.13243986164220
H            3.25746093612706        2.38227762065372        0.11745721952401
