26
 energy: -39.168403399075 gnorm: 0.000868524647 xtb: 6.6.1 (8d0f1dd)
N           -3.93402430316471       -0.42966001202092       -0.05011406855358
C           -2.55905556410976       -0.35806285488978        0.00523373161814
C           -1.88662632278837       -1.59138018819122        0.02957915330787
C           -0.52952247167085       -1.82499808733899        0.00146624051149
C            0.52200797790897       -0.92759100593793        0.00347301073592
C            1.88867922104828       -1.28401193377998       -0.01596554972035
C            2.65173876419912       -0.12398566198821        0.03734678128711
C            1.80162138099497        0.98503192119586        0.08025774009827
N            2.24241093078225        2.33041790189934        0.13742266559457
H            3.25419384954696        2.36492115794400        0.06846854947352
H            1.95673871713030        2.78181605594004        1.00131881963080
C            0.46981629485023        0.54543956811396        0.04132456885239
C           -0.67504585629933        1.34653240651174       -0.04724931727000
N           -0.48710078747978        2.70377777497563       -0.09799997677665
H           -1.26341815026736        3.26331676760648       -0.41102838810117
H            0.43284053962688        3.00607015412462       -0.38482552645386
C           -2.00856021810421        0.91612573197165       -0.04642276605410
H           -2.73674811609934        1.72047340909712       -0.10374246816466
H            3.72818498550913       -0.08190087987346        0.04274925863187
N            2.40368174710049       -2.57265707618823       -0.13286307273886
H            1.80752390852132       -3.29477840790606        0.24516021784564
H            3.35377046160029       -2.65472905552380        0.20032968461752
H           -0.24768148521723       -2.87307313608544       -0.01829278986604
H           -2.52799299137048       -2.46477724496008        0.04810591444421
H           -4.36623976770724       -1.29942445012895        0.21069661922843
H           -4.45869821974056        0.40163722163263        0.16198439092154
