21
 energy: -37.380837200872 gnorm: 0.000474763641 xtb: 6.6.1 (8d0f1dd)
N           -2.59001296305851       -2.66338517481939        0.03690991996317
C           -2.02928646887611       -1.65836675049209        0.03515808109637
C           -1.40830568776636       -0.41123197115368        0.03290186050424
C           -2.10749566341363        0.83209268386880        0.03939939544207
N           -3.44360291402805        0.94350679377582        0.04759740570317
H           -3.88131723641249        1.84722623167180        0.05267138072327
H           -4.01637278460277        0.11704372908239        0.05141711264819
C           -1.18141945516662        1.88517219542470        0.03408012906821
C            0.10272521926771        1.36418857674222        0.02405886950672
N            1.19506311799351        2.10066128665327        0.01467317179819
C            2.42655887088659        1.62590973121500        0.00153968895700
C            2.91748392800497        0.33230205765124       -0.00620938356578
C            2.19856593204743       -0.88256520995010        0.00091852705923
N            2.90376673386822       -2.04009297479251        0.01469966986301
H            3.90181874708473       -2.04943882628646       -0.08242847098459
H            2.38658938973778       -2.89986165536197       -0.03531274544683
N            0.88255818402445       -1.07961165824070        0.01210246567045
C           -0.03459955110598       -0.14716848858335        0.02341862635686
H            3.99631307948791        0.23090566206863       -0.01768561532206
H            3.17152213091868        2.41743000806904       -0.00512977431983
H           -1.42400771809148        2.93038249435731        0.03664078547887
