22
 energy: -37.106028664822 gnorm: 0.000518832426 xtb: 6.6.1 (8d0f1dd)
N           -2.56979276609745       -2.70688262074755        0.03950525750704
C           -2.06063859007649       -1.67326226507949        0.02725550376808
C           -1.46328530884222       -0.41764975087729        0.01684130126816
C           -2.16038004977417        0.81885465253143        0.01393931396226
N           -3.50136193074399        0.94362859184501       -0.01372174058708
H           -4.07897409900437        0.12586993854784        0.07545395303137
H           -3.92232526660371        1.85016835111466        0.07935100843588
C           -1.22628673608867        1.86552426994446        0.01049088842576
C            0.05618209117317        1.33662368239727        0.01190882286132
N            1.14560381805647        2.08267881480769        0.01181221182267
C            2.38355747247457        1.64828788284927        0.01085977919346
C            2.93654268288047        0.37223136006955        0.00597692565511
C            2.30516585958619       -0.87575349570600        0.00946179142085
N            3.10197836076685       -1.98527219505958        0.05556868064384
H            2.69260148889660       -2.88794241864402       -0.10787064703034
H            4.08733423010638       -1.88898848503783       -0.11457706274440
C            0.91602256469279       -1.09624774413821        0.01439853802065
C           -0.07960890181442       -0.15279662593357        0.01577191863712
H            0.59632591009276       -2.13367589843575        0.01719371987600
H            4.02030527779880        0.33950897811738        0.00220070642319
H            3.10253128100287        2.46437213751591        0.00991208318994
H           -1.46153682528248        2.91199697051884        0.00713594371913
