23
 energy: -36.021337218248 gnorm: 0.000689963179 xtb: 6.6.1 (8d0f1dd)
N            2.82134442965549        1.49500640367526        0.11137141362121
C            1.87801333008793        0.51954838727770        0.02840970510698
C            2.35669048299029       -0.79753113330346       -0.10470668596826
C            1.64127568973085       -1.97108633518389       -0.19848759162608
N            0.36234650747465       -2.25373662278231       -0.06124113663363
C           -0.64317945971516       -1.39280834473776        0.07043143404246
N           -1.83432123033477       -2.01339231647362        0.28877775680473
H           -2.59397952082129       -1.46853898787099        0.66401180275464
H           -1.77889480478614       -2.99441784748819        0.50703140702207
C           -0.63600284907824        0.01070634030360       -0.04904885071022
C           -1.76930118077331        0.84165093418793       -0.09216785263709
C           -1.34939722867433        2.17274715919619       -0.04353272377629
C            0.03356746781849        2.20786032496537        0.03028029243230
C            0.52838320146889        0.89654285546303        0.00183257439963
H            0.61409862617140        3.11288290720069        0.06754733291002
H           -2.00210021068685        3.02880629170104       -0.05645461094281
N           -3.11133543973358        0.42171733129584       -0.15020022511945
H           -3.73041805114044        1.21692693385693       -0.25620369171624
H           -3.27620078071129       -0.24609891135342       -0.89493018980736
H            2.23342612786342       -2.87029287717119       -0.36055175962612
H            3.43512813613218       -0.89682228334776       -0.15182256638696
H            3.78638344049583        1.24378949926917        0.22564819135320
H            2.54660842826600        2.44061623381984        0.29787444300326
