22
 energy: -32.299864146512 gnorm: 0.000444718127 xtb: 6.6.1 (8d0f1dd)
N            3.27312456542579        1.51084757302563        0.11886504750992
C            2.20416903841739        0.62900853761260        0.03356177278589
C            0.92859067198842        1.19714615494730        0.02882787207649
C           -0.30780768439655        0.58303479273236        0.01479792353120
C           -1.53587987775663        1.24082130307867        0.01373714077160
C           -2.56055293972676        0.28750698001895       -0.00330938680262
N           -3.89973330632488        0.55752098155299       -0.06950154119904
H           -4.19412725170617        1.48167525924705        0.19993661721820
H           -4.52898889432627       -0.18812602763092        0.17807001338906
C           -1.98873438144383       -0.99564853721101       -0.01564127687232
C           -0.60607719175241       -0.87182445000328       -0.00389851415330
C            0.30844439156897       -1.91343187862634       -0.00306804374503
C            1.69102102623243       -1.84194228768452        0.01268723108094
C            2.51960088812472       -0.73290694109599        0.02585864273848
H            3.58315924715504       -0.94825925957034        0.03421589713559
H            2.20666448976935       -2.79548185779936        0.00943335299071
H           -0.12047683769346       -2.90939953177184       -0.01681021129103
H           -2.53700810544529       -1.92004641564664       -0.03092782378809
H           -1.67650526644875        2.30641851232430        0.02627866391361
H            0.90427437583344        2.28299483867875        0.03911593885117
H            4.17288789267888        1.15687936769036       -0.16307975113741
H            3.09393043292655        2.46149681523129       -0.16140109090404
