23
 energy: -36.026400190286 gnorm: 0.000521118317 xtb: 6.6.1 (8d0f1dd)
N           -3.62365883921265       -0.45243160869287       -0.26519150704004
C           -2.32373723166616       -0.08369561261038       -0.07497335894892
N           -1.51159591692403       -1.12451255862484        0.01262704753583
C           -0.18362962640055       -1.15064423961428        0.06623384424727
N            0.30679380524533       -2.41536042512157        0.20348262993472
H           -0.37182311330892       -3.12096353392243        0.43775847001894
H            1.24572823133493       -2.51479327235933        0.55540994039602
C            0.73411588378801       -0.09317812841748       -0.04185376899573
C            0.41564695968017        1.33462988591207        0.03790692607113
C            1.63637475720111        2.02292357064565        0.06250012221923
C            2.67021552732847        1.10801617248276       -0.03446396961783
C            2.13442268705158       -0.18471052614359       -0.10300654898332
N            2.89110655322815       -1.36709073045731       -0.18866756848141
H            3.87773984944897       -1.15689806885214       -0.28520926908499
H            2.58991771670336       -1.96851457659556       -0.94721256757749
H            3.72183847492911        1.33886294829730       -0.05242231910821
H            1.74071435860013        3.09095576609710        0.12556812333304
C           -0.84037766222620        1.91935182339698        0.08769046459157
C           -2.06774379328964        1.29950495927697        0.02166488855024
H           -2.94610105698342        1.93291846490336        0.03112742569167
H           -0.84956381225624        3.00144869342139        0.16287923088121
H           -4.36366080952162        0.21336533214359       -0.13801940831315
H           -3.83711964814998       -1.43196364416547       -0.19902617721979
