25
 energy: -39.454305563915 gnorm: 0.000549624383 xtb: 6.6.1 (8d0f1dd)
N           -2.92336201769505       -0.78424781405482       -0.01570769731909
C           -1.57203646667232       -0.95701890844281       -0.02441195820052
C           -1.10628256349922       -2.28719789832351       -0.10893005500560
C            0.18724479959979       -2.75326131436934       -0.11192363972757
N            1.35916248924641       -2.16445740389781        0.03443449060815
C            1.59549734039785       -0.85728928888407        0.10158420753982
N            2.92049479567220       -0.58224161972375        0.28154176328560
H            3.48575937926083       -1.37889650340408        0.52660823893538
H            3.16866499812813        0.31717508609613        0.66077916922756
C            0.70661274028915        0.22431751275752       -0.03843244812221
C            1.06154538880736        1.57991211425423       -0.12864434121261
C           -0.09751851176008        2.35576880129508       -0.05197195455139
C           -1.19854358112112        1.51797894085836        0.07606782879779
N           -2.54402151996091        1.94720793693354        0.17925185268787
H           -2.59525809082037        2.95461438139831        0.06957248652972
H           -2.94635822148577        1.69653283611017        1.07785197182044
C           -0.75984141661141        0.17802343750063        0.03609343702524
H           -0.12954779390443        3.43228356923079       -0.08280499917750
N            2.36193539725070        2.10071476983811       -0.23335008760126
H            2.91348646119560        1.63223287070696       -0.94236734426285
H            2.34040278759907        3.09815430601772       -0.40808873572363
H            0.29665253312175       -3.83118681508523       -0.22190360472042
H           -1.88000423523619       -3.04127902760691       -0.19862063710945
H           -3.26020580117665        0.14019614405521       -0.24531420571976
H           -3.49658224862534       -1.56991542216040       -0.27366140750369
