20
 energy: -28.864291627627 gnorm: 0.000618803912 xtb: 6.6.1 (8d0f1dd)
N           -0.60194185656919       -2.59179413835799       -0.05805682338195
C           -0.67763270669923       -1.23306101412137       -0.01665889480256
C           -1.97768727430072       -0.69294642937443       -0.01694368031233
C           -2.40088398031623        0.61601854839623       -0.01017284292836
C           -1.66647697448382        1.79972125396000        0.00405961240274
C           -0.29428246087309        1.94165518725351        0.00998688380219
C            0.68056320260306        0.95527751712703        0.00152121981015
C            2.05877425016885        1.21033265761083        0.00733628684556
C            2.73834147584310        0.00388351156634       -0.00509526848571
C            1.81489705494703       -1.04074271593071       -0.01598789741931
C            0.52332013890582       -0.50773067023722       -0.01244660824592
H            2.08572987797058       -2.08230815559283       -0.03128075190548
H            3.80783202988010       -0.11572449192356       -0.00580149202859
H            2.50358606133744        2.18868633390752        0.01862108322356
H            0.08421319991206        2.95831588188476        0.02278287231652
H           -2.24740104907301        2.71329405039975        0.01175403797536
H           -3.47752902313040        0.74577772604590       -0.01311929901261
H           -2.76684311003472       -1.43798882364598       -0.02518409141983
H           -1.43170886333493       -3.14166714924594        0.07510347211894
H            0.28544508824731       -3.04044394492182        0.07141738414764
