20
 energy: -32.858968944530 gnorm: 0.000624225214 xtb: 6.6.1 (8d0f1dd)
N           -3.19594227958468       -0.74961382923193        0.09110235272990
C           -2.07826673136906        0.04251513436185       -0.04137951538299
C           -2.06987420665416        1.42620539671644       -0.17283686321652
C           -0.74774730923859        1.88159942404297       -0.19055728533960
C            0.11424526241237        0.79547688274822       -0.11799286835745
C           -0.73078328030367       -0.41003181197094       -0.01554565758376
C           -0.28695700984564       -1.69459827839279        0.20374621887459
N            0.92744219066403       -2.19805629738098        0.03548279163721
C            2.01164718999559       -1.50856374831529       -0.24779869995473
N            2.33901583216971       -0.24611860859500       -0.13232237167589
C            1.51339935527461        0.79299191240498        0.03301608306579
N            2.15634458155311        1.95001738361659        0.29530304789618
H            3.15993140118137        1.93488926441328        0.33762667131547
H            1.65705986303570        2.81671122495966        0.36522931456950
H            2.84537619420002       -2.13626338425578       -0.56158525160243
H           -1.01849598687365       -2.44931068865428        0.48762310710234
H           -0.46507301195155        2.91622334756838       -0.27677851379036
H           -2.94416785848216        2.04999492388293       -0.22724836663966
H           -3.08061011370870       -1.72418538777351       -0.13343586659811
H           -4.05521135867479       -0.34691736864472       -0.24741582814950
