24
 energy: -35.735814820834 gnorm: 0.000724413459 xtb: 6.6.1 (8d0f1dd)
N           -3.55796150160109       -1.12459202219580       -0.11000034606884
C           -2.24339196095254       -0.72258747259404       -0.04287749732812
C           -1.29137926664484       -1.75611811498459       -0.02716571883092
C            0.08093125307742       -1.65599011864609       -0.01382462760929
C            0.88349692325373       -0.52867001363859       -0.01530340710718
C            2.29712710059908       -0.54208202350307       -0.00009371064790
N            3.10839366641176       -1.67107527482572        0.08405548515617
H            4.05994325753807       -1.49750926119111       -0.20693522532782
H            2.72466562171557       -2.49649628021512       -0.35298767501496
C            2.75151068626557        0.77214107758074        0.00047582151388
C            1.65659588013652        1.63361628944545       -0.01792077237615
C            0.47874489977765        0.88489395356196       -0.03115578652385
C           -0.83035074187726        1.38743259733595       -0.04487161692983
N           -0.98263874070983        2.74820426492513       -0.10673089892468
H           -1.88537286064680        3.14001115793191        0.09695097172664
H           -0.18572659831074        3.32108311499564        0.10256737325401
C           -2.01846360789002        0.64913568116602       -0.04180044466444
H           -2.92136105995583        1.25350464517109       -0.05116221486413
H            1.74395465997402        2.70642622458170       -0.03146447796506
H            3.78475216531169        1.07348651113818        0.01243647354933
H            0.60854143353764       -2.60420698668917        0.01090806324948
H           -1.70342790999556       -2.75852584657992       -0.02527107880612
H           -3.77182085375496       -2.07887822392562        0.12207471503267
H           -4.27467089545922       -0.44899423064493        0.09051769900712
