19
 energy: -33.156112803214 gnorm: 0.000699314713 xtb: 6.6.1 (8d0f1dd)
N           -3.08646842813241       -1.53999155618197       -0.06148344997003
C           -2.07931494116872       -0.62773063346869       -0.01937161400423
N           -0.88326866661997       -1.19109539503471       -0.02166197920290
C            0.27317880821781       -0.57334239735140       -0.02095523393293
N            1.42316052866135       -1.23829531898818       -0.02308785657709
C            2.36870541844337       -0.27637698734511       -0.01987120329075
N            1.93406898285990        0.99705694795100       -0.01561129721554
C            0.60176805275280        0.89205039601867       -0.01454362002817
C           -0.27309271852111        1.95701666683060       -0.00489809937433
C           -1.66150216512503        1.86242172197259        0.00128717447201
C           -2.45503288911338        0.73858090871470       -0.00429609263686
H           -3.52562888721408        0.90735200196136        0.00088563511165
H           -2.19216035361637        2.80755609462462        0.01225728334196
H            0.17069695407177        2.94343607534489        0.00058539810575
N            3.67004223841072       -0.57815391477421       -0.00448198346001
H            4.34479233978580        0.16172272451363       -0.06547093993176
H            3.94417378908151       -1.54093825738539       -0.06993129261938
H           -2.82536514958685       -2.50752877800221        0.01080480467980
H           -4.04190713978711       -1.27270192970016        0.08457842923282
