20
 energy: -28.855249490930 gnorm: 0.000714740543 xtb: 6.6.1 (8d0f1dd)
N            2.70251051241511        1.40079199729718        0.06594935268239
C            1.83645606470626        0.32141851014925       -0.00200863747120
C            2.22690788977696       -1.02155040305735        0.00449825259178
C            1.10097103299256       -1.83722420973939        0.00263214221089
C           -0.04394432375019       -1.04020299560867       -0.00343271228145
C            0.42866215069408        0.37778814148061       -0.00094915738043
C           -0.34590813386629        1.51599604053221        0.00856917733541
C           -1.73233068107015        1.62794033485088        0.00904324926711
C           -2.68532430583083        0.61872293753399       -0.00121088539905
C           -2.52543487015866       -0.75846346543192       -0.01343381835643
C           -1.34450271484927       -1.49428231852328       -0.01114741160356
H           -1.45739011848105       -2.57352127437116       -0.01596946075846
H           -3.44063045266366       -1.33758723862169       -0.02256908430133
H           -3.71433567488430        0.96157902583072        0.00028122801433
H           -2.12083035424696        2.63895162167416        0.01975161843050
H            0.19349731257993        2.45801584966637        0.02583336504186
H            1.10769018065270       -2.91194257040334        0.00307387562022
H            3.24791629829332       -1.36290085543668        0.00946438252089
H            2.35039648866007        2.26332941729190       -0.31966196636305
H            3.64539156103042        1.19414231808622       -0.22618237960041
