20
 energy: -32.865357427511 gnorm: 0.000463958206 xtb: 6.6.1 (8d0f1dd)
N           -3.02492719544724       -1.60792673489503        0.10667892787130
C           -2.06129318674417       -0.63993492639478        0.03446953419384
N           -0.83593440808168       -1.14993763765345        0.03063244844557
C            0.29766033993977       -0.50363928145115        0.02404912279144
N            1.44729606098950       -1.17587296330136        0.02611618993242
C            2.43301095491179       -0.25841483458677        0.01815399180145
N            3.72213043538676       -0.65026276207744       -0.02023684380253
H            3.90996491910121       -1.62840189208738        0.11250924584379
H            4.45229394197159        0.01567130725501        0.15682175367296
C            1.95336881143619        1.06643091060495        0.00908963240781
C            0.57259514168794        0.97761069589154        0.01147998417768
C           -0.36387015388597        2.00092803838835       -0.00123995914940
C           -1.74114906584197        1.85883476709259       -0.00183015421228
C           -2.49392030712340        0.69847490056201        0.01408770392611
H           -3.57019446013084        0.82687659540635        0.01440232286246
H           -2.31036607506861        2.78132629793703       -0.01680620943901
H            0.02756197477765        3.01194836227655       -0.01463078318330
H            2.55407524447018        1.95581960619155       -0.00034125429116
H           -3.97603066513673       -1.39395911675945       -0.13360779678231
H           -2.70266947541201       -2.55250485029912       -0.01487802806682
