24
 energy: -35.736947766916 gnorm: 0.000518403806 xtb: 6.6.1 (8d0f1dd)
N           -3.75897058612700       -0.39169152417089       -0.04374061919997
C           -2.41826672834721       -0.08385505963874        0.00476497162290
C           -2.10962530750263        1.28910759934639        0.01093565497902
C           -0.87279953310678        1.88479274648180       -0.02088137254754
C            0.38675150202731        1.30158513832580       -0.01516210687733
C            1.58842657931884        2.02073739059879       -0.04941568685936
C            2.64732099126377        1.13019403366600        0.00514867718238
C            2.14442249106269       -0.17304637290694        0.06790522157315
N            2.93814544821471       -1.34847763260194        0.13377937975413
H            2.82367050190805       -1.82402824004490        1.02428896913035
H            3.91706172730810       -1.10638496452740        0.02122041544696
C            0.74035112955578       -0.11937007720732        0.03508778653610
C           -0.14011752317111       -1.21061682183005       -0.03517534429603
N            0.41725583026658       -2.45894670893422       -0.06854685340883
H            1.39278430408768       -2.49604865803104       -0.33043835664699
H           -0.16687672516677       -3.22489822379264       -0.36069173187790
C           -1.53871829391079       -1.15863899262084       -0.03598198394950
H           -2.01990963213749       -2.13198766111729       -0.08078264303438
H            3.69350435360957        1.38716970837330       -0.00075699391175
H            1.66591712484840        3.09199300453626       -0.09673999743582
H           -0.87035558128209        2.96954861912462       -0.04301211654859
H           -2.96813243850509        1.95073419624008        0.02088911739616
H           -4.41547023590410        0.32956360590942        0.20023333119126
H           -4.03840519891051       -1.33351188047827        0.17060844798148
