22
 energy: -32.304325225750 gnorm: 0.000289180331 xtb: 6.6.1 (8d0f1dd)
N           -2.95232382053785       -0.24451115841318        0.03388159376522
C           -1.61121429398469       -0.50461374788351        0.01275934747874
C           -1.25393279307831       -1.85695244185937        0.03170342603836
C            0.00002188729178       -2.43345394022054        0.04840044793750
C            1.25397132735502       -1.85696712973140        0.03083965987365
C            1.61125707663870       -0.50463302749280        0.01164456463289
N            2.95238440772500       -0.24454835465499        0.03184711690147
H            3.59187727342979       -0.99842266292841       -0.14868059983007
H            3.26934612556462        0.68615008592315       -0.16804473223282
C            0.73123203774152        0.59385097362995        0.02175353937439
C            1.12837865104596        1.93835217990735        0.02607236258421
C            0.00004854059538        2.74523492552046        0.03293827801379
C           -1.12829546635849        1.93836528470090        0.02685368476026
C           -0.73116821967242        0.59385892172997        0.02226169112607
H           -2.13650891824692        2.31411435972843        0.03757169256468
H            0.00005806424146        3.82126823776173        0.04237547584492
H            2.13660388098539        2.31408874793503        0.03609247790181
H            2.08899838500022       -2.54915029993674        0.03324091890867
H            0.00002096545078       -3.51775099906453        0.06421996577264
H           -2.08896629223320       -2.54912564889308        0.03467286763879
H           -3.59194910585157       -0.99837864244147       -0.14620583015142
H           -3.26940740320233        0.68618648738313       -0.16580330450362
