19
 energy: -33.152538202118 gnorm: 0.000238006199 xtb: 6.6.1 (8d0f1dd)
N           -3.35553445503794       -0.24158565568094        0.00560090648303
C           -2.00772879172641       -0.24582204180394        0.00226979769365
N           -1.50736958872579       -1.49218756280930       -0.00088869696276
C           -0.23678613301686       -1.81216565735991       -0.00209685074241
C            0.88347609747988       -0.99512438078901       -0.00005595415835
C            2.23796170390761       -1.38004941993414       -0.00014922310569
N            3.05210128536993       -0.33409555147789        0.00153885477520
C            2.28249649822123        0.76859404625962        0.00252453658039
C            0.92592096083239        0.46101068366520        0.00174308795735
C           -0.19886945031875        1.31707719336316        0.00132905895694
N            0.00104762398917        2.64782808518935        0.00046314171354
H           -0.80068856590833        3.25318388800883        0.00035750785056
H            0.92806408882425        3.03061696330368        0.00014485504105
N           -1.48019297897652        0.97213460246819        0.00206514509874
H            2.75142613996502        1.73740821517953        0.00393960544237
H            2.62468001717352       -2.38277091090062       -0.00124629826703
H           -0.06555002607882       -2.88663064054278       -0.00476361185251
H           -3.84140029268989       -1.12004713542619        0.00503244765079
H           -3.84986081028368        0.63173526718716        0.00728459914511
