16
 energy: -25.961644459004 gnorm: 0.000790935917 xtb: 6.6.1 (8d0f1dd)
C            1.90308075320986        1.23255131097113       -0.00066232680309
C            2.43374846953551       -0.05560311162903       -0.00081835742760
N            1.89117602738094       -1.25976682855894       -0.00069505495069
C            0.60319317855834       -1.54885102582039       -0.00044689450329
C           -0.50159960659766       -0.71722459476747       -0.00033632854931
C           -0.52334922582441        0.76772170057308       -0.00033008947166
C           -1.88783556203923        1.08445122451486       -0.00013495647079
N           -2.65549443251599       -0.00530464816613       -0.00003471530704
C           -1.85547724533155       -1.07327293724715       -0.00014091156972
H           -2.26724577047603       -2.06567579534012       -0.00008234447864
H           -2.32814516461069        2.06476759500400       -0.00007226446555
C            0.56522174934616        1.61307783741656       -0.00044554641580
H            0.35312184065594        2.67636731741605       -0.00038838584484
H            0.40885744077063       -2.61948257597104       -0.00032614470410
H            3.52075307901944       -0.11075143540854       -0.00107892273003
H            2.63108773001874        2.03366804341311       -0.00075935760785
