25
 energy: -40.265918482157 gnorm: 0.000456723466 xtb: 6.6.1 (8d0f1dd)
N           -3.37624915209524       -1.94270052035550        0.16990799360966
C           -2.50585077250583       -1.19015411459680        0.08975093093046
C           -1.44743431048000       -0.26860861093797        0.01024576199627
C           -1.84619354738430        1.08801812522712       -0.07271454828763
C           -1.02849733530370        2.22520827183908       -0.04474872284574
C            0.34348195086697        2.30586065458335        0.03538564433738
C            1.28195391257673        1.28890073852393        0.03912207539627
C            2.66947670997865        1.49853397363427        0.09008993264836
C            3.31273786472319        0.27791166949317        0.01072303109876
C            2.35359987969151       -0.73803172886561       -0.08231591388917
N            2.65026262531920       -2.11149602532156       -0.18512469948528
H            3.65276760488186       -2.26077396884021       -0.16067178315777
H            2.26828981283024       -2.52969130064008       -1.02708080164839
C            1.06992733731557       -0.15671898135549       -0.03807664723785
C           -0.14774778890303       -0.84572082712521        0.03692098189027
N           -0.08951960622214       -2.19963122682329        0.12203290194560
H            0.79533722855503       -2.60691711074232        0.38468219181914
H           -0.93305190603543       -2.71455667599441        0.31383847959056
H            4.37740199511234        0.11880674494724        0.01193937964656
H            3.14317732767068        2.46069118279427        0.15876633159759
H            0.75462436534870        3.30814161119060        0.08233738237264
H           -1.56509459232757        3.16613580230131       -0.07738075762135
N           -3.18364776741356        1.32225263128213       -0.18189100864601
H           -3.84017913864809        0.56514266114185       -0.10065042121109
H           -3.52874670255185        2.26192055014011       -0.11057707914928
