19
 energy: -29.139193491686 gnorm: 0.000567304176 xtb: 6.6.1 (8d0f1dd)
N            0.63366122272055        2.60014664960775       -0.00381181664850
C            0.67870304939099        1.24761864847436       -0.00084440634940
C            1.95974293277617        0.65924905992984       -0.00119255045999
C            2.32231573636562       -0.67056140378752       -0.00095573149704
N            1.63003449751214       -1.80087622999438        0.00037650164136
C            0.31815546385414       -1.89617787953235        0.00121682786308
C           -0.67412496828220       -0.92682156299323        0.00064849439197
C           -2.05199737512128       -1.19582862022422        0.00126483020587
C           -2.74005361308929        0.00442683717070        0.00048144281964
C           -1.82416616440032        1.05949783860363       -0.00048908201694
C           -0.53199772128697        0.53664057001307       -0.00050013210537
H           -2.09949845469264        2.10005531997106       -0.00153670889193
H           -3.81011085059344        0.11655497322652        0.00060299133470
H           -2.48623734233283       -2.17858585824796        0.00219862165512
H           -0.02699779043727       -2.92872193145435        0.00241579126030
H            3.39382311687602       -0.86046512986430       -0.00168578538307
H            2.78301574347821        1.36565895320815       -0.00188932109441
H           -0.24769048415632        3.07800077722033        0.00616350038509
H            1.48039128911877        3.13907219787290        0.00598660118947
