21
 energy: -37.386913090921 gnorm: 0.000313976368 xtb: 6.6.1 (8d0f1dd)
N            3.98721912427072       -0.00047210605326       -0.00104608224469
C            2.83667482983973        0.00007227087169       -0.00074248185176
C            1.42433076703227       -0.00006704203030       -0.00092231913672
C            0.83737792366173       -1.29045093220936       -0.00156173477344
N            1.68452522338221       -2.35362653738097       -0.00877260493621
H            1.31335666708645       -3.28557377751029        0.00573895310984
H            2.68110043318208       -2.22688052254197        0.00360451031360
C           -0.52840180232542       -1.60198385292695        0.00107330437811
C           -1.59696864397535       -0.74209507910380        0.00084737191794
N           -2.88213608382289       -1.13675637613182        0.00246376226454
C           -3.57546706905266       -0.00001392258305       -0.00088111598554
N           -2.88210921252281        1.13671080078009       -0.00423839384173
C           -1.59695368191094        0.74201569670467       -0.00265121537925
C           -0.52836802944175        1.60187710488311       -0.00292641908136
C            0.83739612282692        1.29031051585720       -0.00030996778689
N            1.68460105163089        2.35343434555776        0.00689599271255
H            2.68116774335353        2.22662308328986       -0.00551631035673
H            1.31348832887096        3.28540873101765       -0.00762842100242
H           -0.78163240851044        2.65496262822209       -0.00446165556910
H           -4.65104413699809        0.00000133648263       -0.00085005620710
H           -0.78170565777711       -2.65506244169504        0.00259887645637
