19
 energy: -33.139397296727 gnorm: 0.000537864288 xtb: 6.6.1 (8d0f1dd)
N           -3.16789403585225       -0.72015219635875       -0.04815664114475
C           -2.03561625152239        0.02133310064091        0.08349045379160
N           -2.08300582232486        1.34037092461919        0.24697657598777
C           -0.80918841075643        1.78522964557059        0.27445594356600
C            0.11695248099596        0.76217792605698        0.18094312218910
C           -0.68998780006884       -0.46088550070943        0.03981525363149
C           -0.22490849888177       -1.72244551229776       -0.23546919520659
N            1.00572935809456       -2.18856941549970       -0.05239062968492
C            2.05880012366688       -1.47621860458725        0.26565189856523
N            2.36304776010094       -0.20539905445722        0.12570094015570
C            1.51631276214975        0.81016550372624       -0.02248597420884
N            2.09581328092551        1.98395356891601       -0.32573317242129
H            3.09484373365113        2.01208786016169       -0.43328856071570
H            1.55387562042153        2.82670642228622       -0.37856059062663
H            2.89461218104620       -2.07681483958816        0.62225390527604
H           -0.92933632253172       -2.48348998070927       -0.56288602109675
H           -0.62914776560624        2.83897867055059        0.39532218866141
H           -3.11331449650370       -1.70603780953022        0.13929715214119
H           -4.02109968490436       -0.25559623479064        0.21494660883980
