19
 energy: -33.936217065349 gnorm: 0.000488694254 xtb: 6.6.1 (8d0f1dd)
N            3.02835675927290        2.15563848543216       -0.00228010712773
C            2.23671832897853        1.32097729665053       -0.00269747877128
C            1.31309581906641        0.27605012318121       -0.00237625309669
C            1.66527778864709       -1.10736595647059       -0.00338525951982
N            2.92303898757586       -1.56836454509732       -0.00439136533314
H            3.69616898068074       -0.92512092025635       -0.00491370813337
H            3.10563175236682       -2.55587142472780       -0.00556343710931
C            0.48913096062471       -1.87383596733956       -0.00303319623867
C           -0.60608953277599       -1.02593286566473       -0.00177887245876
N           -1.85869363133518       -1.44251536450635       -0.00102376028674
C           -2.92842279595016       -0.68345990607106        0.00014096559372
N           -3.13408273005800        0.62467532035154        0.00055380164201
C           -2.23619575245829        1.58481253227155        0.00021935300025
C           -0.84059691901784        1.53496255086502       -0.00047351802440
C           -0.08062208340066        0.38156749417783       -0.00134366907537
H           -0.30927617434279        2.47967717674090       -0.00044684820004
H           -2.68390794177287        2.57576112184326        0.00061548335474
H           -3.85600006845648       -1.25307850430045        0.00078512049424
H            0.43973763755520       -2.94513194377992       -0.00362065660954
