17
 energy: -29.693788455223 gnorm: 0.000515846879 xtb: 6.6.1 (8d0f1dd)
N           -2.83912154565047       -1.21923359772192        0.00098373545365
C           -1.73004603195314       -0.45245058573017        0.00034680820601
N           -0.59752945227393       -1.15992697509787        0.00010589089058
C            0.61206941994129       -0.68877270254052        0.00063521831652
N            1.67358207450491       -1.49969137306940        0.00032398658990
C            2.75205196372460       -0.71480724544595        0.00141318985776
C            2.46539266409734        0.65233708400916        0.00232858966427
C            1.08050469512208        0.75610586515425        0.00180323634118
C            0.26576323005400        1.87127817701649        0.00155911470827
C           -1.12848716656338        1.85380018797892        0.00036148336242
N           -1.98132127592346        0.85791309704244       -0.00005417277254
H           -1.62652440440519        2.82074652074014       -0.00030749351023
H            0.74624984850369        2.84293395320699        0.00201926309177
H            3.17734792584125        1.45473187318086        0.00319019357134
H            3.73128902985684       -1.16336500880508        0.00149150357399
H           -3.74247341443616       -0.78254207955100       -0.00019459990505
H           -2.73621806064024       -2.21762658396734       -0.00002905633984
