18
 energy: -29.437936207820 gnorm: 0.000248054811 xtb: 6.6.1 (8d0f1dd)
N            3.46298978515486        0.00004729349817        0.05524939509017
C            2.12425833075674        0.00003042082817        0.01936572564827
N            1.41069725958548        1.14229900499086        0.01495654665891
C            0.13761385206915        0.73931203090672        0.01032828299566
C            0.13762667172172       -0.73928762419220        0.01048731568909
N            1.41071776089909       -1.14225110241074        0.01519323824855
C           -0.94703220066873       -1.60385118445860        0.00416164085691
C           -2.28526483971630       -1.25966999493548       -0.00373226126003
C           -2.87287451584011       -0.00001584574056       -0.00722798303704
C           -2.28528666978519        1.25964967051104       -0.00401023988650
C           -0.94706033293780        1.60385555592981        0.00381325647614
H           -0.69497063919870        2.65637812533312        0.00516898651260
H           -2.97944770094411        2.09196340518061       -0.00781751815397
H           -3.95661687508215       -0.00002577680636       -0.01302328730816
H           -2.97941103582558       -2.09199686584943       -0.00736014503525
H           -0.69492490987908       -2.65636924696739        0.00573617874152
H            3.94731902259607        0.87211382775246       -0.05330262817370
H            3.94733736679462       -0.87203095447023       -0.05312393636318
