16
 energy: -29.964724182800 gnorm: 0.000633774971 xtb: 6.6.1 (8d0f1dd)
N            2.93599498911364        1.10734978405688        0.00674244998762
C            1.76785035454063        0.44331268151764        0.00164769835543
N            0.68931371010362        1.23533041195270       -0.00182484976745
C           -0.53908072063722        0.79328657164209       -0.00213177393021
C           -1.70881520227543        1.55436560336691       -0.00405383094521
C           -2.75546975504617        0.64378724625690        0.00107008657855
N           -2.37765406306146       -0.64836379873446        0.00533053297154
C           -1.05553606957655       -0.66030552002980        0.00284956078802
N           -0.35591519811799       -1.76584212996769        0.00226912304555
C            0.96516375874105       -1.80519951864798       -0.00170985115287
N            1.89866227310554       -0.88837630137795       -0.00069831218151
H            1.36278304364141       -2.81800925983054       -0.00543369081888
H           -3.80753096801125        0.87525806588451        0.00188957097219
H           -1.77896565059721        2.62310502743475       -0.00766121262038
H            3.79491335395593        0.58737918694488        0.00740362547724
H            2.93132296212146        2.11149479023113        0.00642074344037
