28
 energy: -48.230738862838 gnorm: 0.000696974516 xtb: 6.6.1 (8d0f1dd)
N           -4.34031302296420       -1.69367612887157       -0.20739982261397
C           -3.39873675957826       -1.03277575619413       -0.11780116157073
C           -2.25615451431452       -0.22135588779000       -0.02504143985013
C           -2.51931201218780        1.16742683916578        0.09708799603240
C           -1.59621473577908        2.21944407325871        0.07463094973956
C           -0.22166323256518        2.16948366589739       -0.02362369868130
C            0.61716377307659        1.07315666408514       -0.04744371197735
C            2.02765978736936        1.15253644589917       -0.09664626763001
C            2.54549736490256       -0.15132256311222       -0.00168185811125
C            3.89351853474824       -0.49812912653886        0.01478175242776
N            5.00453129130750       -0.80156042325578        0.02475823299171
C            1.46917093511314       -1.06740804112962        0.08555445246966
N            1.64209320634161       -2.44949601778282        0.18860695233079
H            2.62444758524839       -2.69638434390305        0.23264206428157
H            1.13582062108798       -2.86625326926152        0.96088812425844
C            0.26351223530879       -0.35348883614559        0.02247203961293
C           -1.01703617083416       -0.91718577117459       -0.07366905424271
N           -1.09281660014286       -2.26768474589703       -0.19695279184057
H           -1.98807423662160       -2.68519378491686       -0.39443463465033
H           -0.26425481521917       -2.75687619191201       -0.49719303102217
N            2.79265491044725        2.28901600508200       -0.12097170426656
H            2.37511981520819        3.12158543287883       -0.50074710616771
H            3.76620654868383        2.15835801112829       -0.34582476483374
H            0.26902463868782        3.13582493237989       -0.05411912834150
H           -2.03646761069735        3.20740221083948        0.13202068103013
N           -3.82361769493086        1.52454828800745        0.22277411450899
H           -4.07966433528889        2.49487375211938        0.22287001450808
H           -4.55065775480885        0.83145449614557        0.18016401110773
