18
 energy: -33.437493026657 gnorm: 0.000899111881 xtb: 6.6.1 (8d0f1dd)
N           -3.08302028697042       -1.46042064926966        0.01816755342238
C           -2.04492791458192       -0.60094886238083        0.00087307209629
N           -0.85893340808888       -1.20317148904598       -0.00583311191011
C            0.29829731792078       -0.59590037043180       -0.00190909507004
N            1.45532958517104       -1.24773098385559       -0.00669198179162
C            2.38824163962563       -0.27685226138144        0.00703789095093
N            3.68973850033164       -0.55683624795776        0.00905216340048
H            4.35435488128435        0.19512021914329        0.02156979479441
H            3.98116341687022       -1.51718583748397        0.00106920017056
N            1.93839988047891        0.99872148878942        0.01812777393987
C            0.61498380484376        0.87933241534290        0.01213810772098
C           -0.29450537796430        1.91943878304990        0.00775041085138
C           -1.67625645255500        1.75607323478945       -0.00820531493631
N           -2.42758842712459        0.68257481046294       -0.00913409061008
H           -2.26864227451119        2.66886175967576       -0.02304800403066
H            0.10429546493813        2.92455909997808        0.01072035915519
H           -2.89590680881636       -2.44667715612325        0.00890503111453
H           -4.01979430735181       -1.10024289000150        0.00585136753183
