23
 energy: -40.031767040248 gnorm: 0.000675662513 xtb: 6.6.1 (8d0f1dd)
N           -2.90796861715411       -0.73378423133378       -0.14002418287518
C           -1.56966240712700       -0.92012598466074       -0.05125361080012
N           -1.21871917786344       -2.21675639111208       -0.04152751893979
C           -0.00148607155534       -2.70376621228439       -0.00077191951186
N            1.21625887288668       -2.21804975671472        0.04012842752915
C            1.56856499005154       -0.92179180680033        0.05026001694868
N            2.90706725952612       -0.73688539743579        0.13907690183610
H            3.24911331466848        0.16412981639897        0.43201550425715
H            3.45289500294747       -1.56005675754203        0.33374702431302
C            0.73184263752571        0.19383513834678       -0.03674524194776
C            1.07573981886631        1.55541075886716       -0.09189582429996
N            0.00117158046614        2.35251740338406        0.00003164390019
C           -1.07423417694896        1.55651129704631        0.09170300752745
N           -2.35141206623118        2.10114509679621        0.17772239578389
H           -2.29150867665505        3.11067612709791        0.23242568366563
H           -2.89562649924160        1.72812618925943        0.94598116614546
C           -0.73176840390329        0.19459287650661        0.03611630457102
N            2.35348973124893        2.09872921113427       -0.17774194404038
H            2.89730774353812        1.72539031993249       -0.94612612479575
H            2.29464720281464        3.10834053260603       -0.23211528691960
H           -0.00206012785723       -3.79525933188335       -0.00094034939772
H           -3.24906538072259        0.16768397704860       -0.43267559056396
H           -3.45466023878033       -1.55631883145762       -0.33496154118572
