26
 energy: -43.992089026314 gnorm: 0.000700760452 xtb: 6.6.1 (8d0f1dd)
N            4.65021768976793        0.09724886256128        0.13208344154739
C            3.50237188429796        0.00143610637491        0.09402070681031
C            2.11573526632116       -0.09576367485864        0.04666507772611
C            1.37378735070948       -1.28693096466701       -0.06739920275762
N            1.92214251742861       -2.54716573101404       -0.06537499101955
H            1.36965530729779       -3.28252138451235       -0.47432617575344
H            2.90581314251242       -2.59069927999649       -0.28188698414499
C            0.00378529257165       -0.95614752812875       -0.06286358996454
C           -0.08609780988718        0.51251540643513        0.01206086516180
C            1.21948337568363        1.00178934613389        0.09779028879344
N            1.62573360236456        2.33254612572162        0.18408352529646
H            2.62402705566867        2.41218287057694        0.33684339958645
H            1.10689108648426        2.87456671114011        0.86324340712177
C           -1.26304889767629        1.26975724766063       -0.12609537777170
N           -2.52941320726098        0.88074383723396       -0.03591909671458
C           -3.02184539129619       -0.34421585960187        0.06285570894221
N           -4.37296878232541       -0.34784005182419        0.22417006032549
H           -4.86097997113300       -1.19797240374975        0.43739877609360
H           -4.82104100028712        0.53340175845642        0.40228382643113
C           -2.39653655029361       -1.60107727259019       -0.06719204076980
C           -1.04394786204799       -1.85815377231361       -0.13142892609534
H           -0.76876114099215       -2.90477440786275       -0.20662730046503
H           -3.06476116122435       -2.45207516142566       -0.08600900771462
N           -1.14390002132371        2.61380387029324       -0.31363204807015
H           -1.99686977058358        3.09425201175673       -0.54831011607424
H           -0.27819614857649        2.96433191130053       -0.69013353032061
