18
 energy: -29.412000668489 gnorm: 0.000267269625 xtb: 6.6.1 (8d0f1dd)
N            0.63249793682299        2.60319987487879       -0.00003987360783
C            0.69279464118286        1.25745441718319       -0.00000434785357
C            1.97614802835297        0.66779749646623       -0.00046041907264
C            2.33536854178094       -0.66250136918075       -0.00063670139007
N            1.64984188573343       -1.79994559025112       -0.00031877040011
C            0.34009803245000       -1.90663539561107        0.00017536635286
C           -0.64517450060474       -0.93090337559400        0.00041029327804
C           -2.03496611348540       -1.14136607135980        0.00085888425797
N           -2.71420934204786       -0.00084049032706        0.00101587875824
C           -1.82030013355847        0.99774047338957        0.00071033906710
C           -0.50658255282064        0.52941170436179        0.00031853014964
H           -2.17054786162405        2.01536021698278        0.00076244625480
H           -2.54476981982787       -2.08711665705041        0.00105449690238
H           -0.00424982470444       -2.93882602799241        0.00041493487590
H            3.40727622478461       -0.85036323232791       -0.00107632767182
H            2.80011913642948        1.37281565297211       -0.00074198862445
H            1.47237750599530        3.15440821097655        0.00012962500757
H           -0.25627238595912        3.06959332198351        0.00061380441598
