16
 energy: -29.979876595456 gnorm: 0.000363024447 xtb: 6.6.1 (8d0f1dd)
N            3.44739006631693       -0.01507642617727       -0.01358106606703
C            2.11980603254608        0.00028185625467       -0.00975209309866
N            1.39332760186464       -1.13591518753541       -0.00789601536931
C            0.13383974561141       -0.73047229554516       -0.00416528773757
N           -0.88761404776898       -1.55885917702020       -0.00140519561710
C           -2.14954914519437       -1.19528143990022        0.00231737288528
N           -2.78158222311088       -0.03644495920986        0.00442814663979
C           -2.26902766620230        1.17991717584232        0.00323413371454
C           -0.95273591784430        1.61894327420841       -0.00049089329443
C            0.15041352870009        0.77924115642288       -0.00388236022737
N            1.41950721573214        1.15979585776893       -0.00747261341199
H           -0.76031142301156        2.68340546134485       -0.00080203210984
H           -3.03803850366623        1.94942285846125        0.00565626890456
H           -2.83259083794526       -2.04336274929021        0.00408138187236
H            3.92626834366172       -0.89791866477536       -0.01521999648673
H            3.95133575531086        0.85361598675034       -0.01491690769654
