20
 energy: -33.660507285954 gnorm: 0.000859135476 xtb: 6.6.1 (8d0f1dd)
N           -2.19640494585964       -2.58724225519973       -0.01824683999352
C           -1.57972656157283       -1.61842136797084       -0.00077860896830
C           -0.83249387248197       -0.41654416950900        0.01043574333956
C            0.55523531574459       -0.58374643486931        0.00673476579008
C            1.60953323437075        0.46530490370596        0.00114283922021
N            2.81970839120299       -0.11361479756736       -0.00327972850421
C            2.61496910009321       -1.43079665835108       -0.00138390190028
C            1.26441838095577       -1.78137347231861        0.00331749821392
H            0.85748875167270       -2.77365592623059        0.00582250218164
H            3.45513355965874       -2.10323644418378       -0.00380720248996
C            1.44965693517899        1.83108699313586       -0.00378707706546
C            0.25216079277586        2.54377726183670       -0.00201533893760
C           -1.04590860723350        2.08781177224986        0.00757660346189
C           -1.57402225979238        0.78240629004515        0.01743024302289
N           -2.93345257126238        0.68030619624558        0.06732514933006
H           -3.37248476118845       -0.21964696757796       -0.02407552373764
H           -3.50184588006564        1.49908391088905       -0.05064295095878
H           -1.80748707736840        2.86062952656942        0.00957000357295
H            0.35750519323707        3.62171748843162       -0.00913696025791
H            2.36948628893446        2.40045818236910       -0.01069208361952
