21
 energy: -42.187046465513 gnorm: 0.000425313376 xtb: 6.6.1 (8d0f1dd)
N           -4.12965173070652       -0.33345901486912       -0.00061456156660
C           -2.99200056184119       -0.18079735582308        0.00026428290813
C           -1.60539402190371        0.08824265584538        0.00022711269312
C           -0.74743968769305       -0.99600364758545        0.00027053498063
N           -1.13619109229965       -2.27545347311928        0.00010252976599
C           -0.00049281712900       -2.97202930110550        0.00014064464919
N            1.13543474561337       -2.27582699631465        0.00033708478065
C            0.74709998278175       -0.99625153186438        0.00043561880642
C            1.60539824574864        0.08772320730203        0.00070739038274
C            2.99191318716698       -0.18169953406525        0.00128948321276
N            4.12940401154754       -0.33460542740667        0.00065653764511
C            1.21027200494697        1.46315476808068        0.00082931384117
N            0.00030258245652        1.98896838204409        0.00062077624792
C           -1.20983791145965        1.46354929283488        0.00033999094125
N           -2.19364708940282        2.38480396941083        0.00017161899337
H           -3.16169665481894        2.11211908652754       -0.00004039250038
H           -1.93802593000056        3.35642783936899        0.00028284324044
N            2.19438086975537        2.38408583517241        0.00118691750291
H            1.93907827176580        3.35579375716086        0.00122072602347
H            3.16234133430526        2.11108005726993        0.00136891543993
H           -0.00066953413313       -4.04648792666419        0.00000577671182
