21
 energy: -37.383151124852 gnorm: 0.000744436056 xtb: 6.6.1 (8d0f1dd)
N            3.21678692599110        1.66970109989703       -0.01513020750809
C            2.18349829432548        1.16814729717709       -0.00760892814718
C            0.87680483284380        0.63311345528380       -0.00148889529588
C            0.76684957845180       -0.75197513513759       -0.00085434726873
N            1.82401018718771       -1.55790351519062       -0.00127762592903
C            1.34559400083052       -2.81653364770451        0.00067442275447
C           -0.03613651304104       -2.88321489352299        0.00245492806426
C           -0.49313820676656       -1.55635407482752        0.00102629459302
C           -1.78468075475693       -1.09583532196587       -0.00336261134415
C           -2.20706093359846        0.25044583274485       -0.00385071082917
N           -3.54903158635651        0.47483495095894       -0.04743213707319
H           -4.20002522862488       -0.27556582583063        0.09359342765959
H           -3.86673271533026        1.42273812576159        0.05031743553048
N           -1.49976394230299        1.36787914008598        0.00508248283673
C           -0.19611092433065        1.57335961173136        0.00375544744936
N            0.13391221935962        2.88742646804757        0.02373234410357
H            1.09353146272827        3.18251089519501       -0.01549589691092
H           -0.60771666373276        3.56320775254569       -0.01080197326173
H           -2.57195429155913       -1.84119839088770       -0.00840607561961
H           -0.64182652745636       -3.76781366784736        0.00398551442248
H            2.03716744843805       -3.64109776211379        0.00103362177327
