19
 energy: -37.948197656138 gnorm: 0.000637247903 xtb: 6.6.1 (8d0f1dd)
N           -3.52428925394089       -1.09593535666035        0.00038409489356
C           -2.41888125455810       -0.78607253118346       -0.00176032444844
C           -1.03739501643378       -0.49319775993063       -0.00197453685764
C           -0.64506249947088        0.82665764301622       -0.00277475607868
N           -1.46171906210456        1.88719516774284       -0.00170127615289
C           -0.64069435960122        2.93619901218391        0.00195938027334
N            0.67038238650464        2.69707225047540        0.00351067052083
C            0.77228167180682        1.36807091906809       -0.00032679351501
N            1.90891938620693        0.73509063269160       -0.00261359771938
C            2.05544798665086       -0.59042741827067       -0.00751786201076
N            3.34152593967425       -0.98080037197313       -0.01613246085182
H            4.05511345071902       -0.27385753185269       -0.01760555951288
H            3.56888844562856       -1.95833775029687       -0.01859268930144
N            1.18673308532967       -1.59956934916328       -0.00361684284570
C           -0.12772834407752       -1.60826643030882        0.00031003073611
N           -0.67147551472203       -2.83989285385509        0.00651965296441
H           -0.05423556136677       -3.63273384753625        0.00766883630410
H           -1.66884340821429       -2.96950119833942        0.00889405530576
H           -1.02444149973076        3.94096545569261        0.00364603089666
