21
 energy: -37.389002606734 gnorm: 0.000781667476 xtb: 6.6.1 (8d0f1dd)
N            3.67984340227477        1.77150890451641       -0.01433134491742
C            2.73542835394162        1.11435974547006       -0.01370954365681
C            1.65626282204104        0.23638258349749       -0.01257618965100
C            1.77992411054146       -1.18987000426088       -0.01818377759123
N            0.59689169979387       -1.80967097904832       -0.01632413568667
C           -0.34839023793773       -0.85410130215837       -0.00947314420624
C            0.28443981735346        0.49888448878975       -0.00679606843452
N           -0.25787046810542        1.70087835001060       -0.00080639281266
C           -1.54361924730730        1.95987999051332        0.00435863098474
C           -2.66876505293455        1.14415526909425        0.00534063582381
C           -2.76442679613076       -0.25340088609402        0.00095437599283
N           -4.01143838486608       -0.79284388671615        0.00483588774349
H           -4.13620719730211       -1.78823260126106       -0.00277791439753
H           -4.82407102265620       -0.20436077187571        0.00505863930051
C           -1.68627453320346       -1.15691632237205       -0.00590378111330
H           -1.92651631190975       -2.21291310716068       -0.00869795517461
H           -3.61730343805738        1.66904319980835        0.01032767248680
H           -1.74251107481221        3.02879020733707        0.00860874575175
N            2.93349685478730       -1.86695596229072       -0.02376092441621
H            3.81003373984384       -1.37642745627963       -0.02858777881706
H            2.91166138484556       -2.87077659711973       -0.03048775190865
