26
 energy: -49.594311613415 gnorm: 0.000875249503 xtb: 6.6.1 (8d0f1dd)
N            4.79574952492469        0.48792532975251        0.02376826738456
C            3.66815127349522        0.25640143303634        0.01011801988537
C            2.29222443234732       -0.04404250334774       -0.00164731801465
C            1.98547744272631       -1.43921185621106       -0.01528376635384
N            0.82004041325848       -2.05411100849537        0.00710740312262
C           -0.38632133665658       -1.53433199320649        0.02018830696209
C           -1.53340493729201       -2.31217668573580        0.04655751564833
C           -2.65470055396151       -1.47221632616275        0.04066483676923
N           -3.94016245921367       -1.84186901077031        0.05865904333859
H           -4.66109944253964       -1.13962344390864        0.05010948343834
H           -4.19470702047678       -2.81315420430601        0.08037173845554
C           -2.21579157074616       -0.11011287719318        0.01225277322209
C           -3.12652665867112        0.94555694526401        0.00255283282841
N           -3.97577075923296        1.72246777971476       -0.00638214848877
C           -0.81831230391914       -0.09651833017137        0.00296753896950
C            0.00215187169105        1.02488302280349       -0.00697049516903
C           -0.62958422488434        2.29103352117764       -0.01833593549155
N           -1.06791687221895        3.35264455415617       -0.03203245465347
C            1.42682205323389        1.06735796069569        0.00122712052575
N            1.99804399211080        2.29543061150897        0.01339674673776
H            2.99891944772783        2.38975640297931        0.01159962903632
H            1.42492155248594        3.12161107533286        0.00823805569753
H           -1.55063648523697       -3.38377322348049        0.06410993937575
N            3.02961682014289       -2.30154454617884       -0.06455663949301
H            3.98217440135792       -1.98634046162443       -0.01370276799184
H            2.81711676584753       -3.28230001002914       -0.02326788274183
