23
 energy: -45.647101630260 gnorm: 0.000513532008 xtb: 6.6.1 (8d0f1dd)
N            4.30112551350359        1.23341698049485        0.00427129008765
C            3.27588634485972        0.71146017717758        0.00261674073467
C            2.07551900468496        0.00881179409074        0.00218145060167
C            1.96973022197180       -1.42058420016831        0.00160394511939
N            0.69968508677551       -1.84636019885792        0.00079386547978
C           -0.07485970938636       -0.75683513845555        0.00089383266190
C            0.76546037140963        0.48619176834435        0.00170795844618
N            0.40952549095525        1.75000284190217        0.00172366633680
C           -0.83410989183842        2.20846192648035        0.00112911479492
N           -0.91285651527225        3.55359757405904        0.00032182989295
H           -0.06164355127391        4.08579968267610        0.00136862985124
H           -1.81141392470602        3.99948092460180        0.00112572081647
N           -2.02760476089166        1.60722586383900        0.00122724489498
C           -2.33037370962655        0.33066666195561        0.00107350087350
N           -3.65510763230863        0.07859595015546        0.00142059562164
H           -4.00664491994097       -0.86324313938678        0.00110959554906
H           -4.28665054836870        0.85966776647907        0.00158698029726
C           -1.45499908644384       -0.81193632197263        0.00058671191331
C           -2.06281588323174       -2.08466399557197       -0.00032999058921
N           -2.62053971948208       -3.08892658762545       -0.00008174765536
N            2.99177552612604       -2.27414622586282        0.00176129133535
H            3.93838776828512       -1.93567120359273        0.00241831663362
H            2.80030240959953       -3.26105577946199        0.00122687360225
