27
 energy: -48.516957798023 gnorm: 0.000577187920 xtb: 6.6.1 (8d0f1dd)
N            4.04202760356488        1.68543389854479       -0.11327408980225
C            2.98219734235250        1.23420013069964       -0.07568644850178
C            1.68065679738826        0.70034193068899       -0.02842412712801
C            0.64634279448627        1.66273402106357        0.06622977832750
N            1.02537958312493        2.95465526965123        0.16262855935725
H            0.33199311221379        3.67768250995254        0.20001907097518
H            1.99901933908542        3.20575472319341        0.15002272419558
C           -0.73155378986656        1.38781403281012        0.04692858056741
C           -1.41869064353456        0.11085818487528       -0.03292522804796
C           -2.78778789138038        0.46243595919222       -0.08543379621056
N           -2.97091833993173        1.78457449658081       -0.01048433303041
C           -1.76159841793316        2.33792399388984        0.07575299796070
H           -1.68943538026893        3.40946432803261        0.13858603077007
N           -3.88498528142260       -0.39561992286572       -0.17705783060247
H           -3.87702962073423       -0.96242533714030       -1.01844819663240
H           -4.73656004594205        0.15413402398860       -0.13741446085641
C           -0.90876083592121       -1.19026754554504        0.05240615181217
N           -1.80133883174447       -2.20283977350931        0.13604384248787
H           -1.47024090734215       -3.13687582515234        0.31534944398356
H           -2.75268586967795       -1.96515864682262        0.37704784460035
C            0.46738211322130       -1.53804581534149        0.02893106465217
C            0.72862736525008       -2.91888493497548        0.09873117316776
N            0.92856919037168       -4.05193682131860        0.16507047941907
C            1.61260943037065       -0.71478047001595       -0.05902278455725
N            2.80016782188286       -1.36009273538556       -0.15859899325045
H            3.66113540117933       -0.84107350533044       -0.17252200440609
H            2.83296214960826       -2.36497625716094       -0.14439717915050
