21
 energy: -41.402808166240 gnorm: 0.000256889227 xtb: 6.6.1 (8d0f1dd)
N            4.31119915383917       -0.00059860172049       -0.00778077950867
C            3.15967880703651       -0.00044919608766       -0.00459051683453
C            1.75360412601549       -0.00029263672475       -0.00072284768344
C            1.13644805246561        1.28123260485559        0.00154522994829
N           -0.15170534525164        1.60485463966556        0.00518876868619
C           -1.15062889754405        0.76274764532179        0.00747203573288
N           -2.41762123305957        1.15169139338521        0.01102708260385
C           -3.12265590722306        0.00026166592569        0.01234277373532
N           -4.45082969813926        0.00041263793679        0.01587024260869
H           -4.94042947269395        0.87720715784017        0.01750863639781
H           -4.94063096810815       -0.87627049614249        0.01666495746891
N           -2.41788578597672       -1.15132828483782        0.00992714629982
C           -1.15080405690355       -0.76267256495719        0.00675478065444
N           -0.15207407641272       -1.60500681570579        0.00372210970935
C            1.13615406493841       -1.28167831752712        0.00042182978646
N            1.93871645154194       -2.36630247155987       -0.00213767850795
H            1.49239622233075       -3.26647752831392       -0.00136020587521
H            2.94039458545885       -2.28756299136825       -0.00485745542764
N            1.93926073198406        2.36567317393852       -0.00014055132737
H            2.94092088766694        2.28670430916056       -0.00285363836520
H            1.49314894723491        3.26595034051548        0.00151416779801
