23
 energy: -45.639450586764 gnorm: 0.000417828953 xtb: 6.6.1 (8d0f1dd)
N            4.66919368786521        0.61669410502655       -0.00032871117192
C            3.53913825734375        0.39718923624170       -0.00000474516013
C            2.15858502617139        0.13018407254114       -0.00146302920294
C            1.30467900338154        1.27346668755389       -0.00072429738400
N           -0.01797319176593        1.33323073886006       -0.00132797083969
C           -0.84525769720204        0.31416496370013       -0.00287447402147
C           -0.56405544663789       -1.17727655881598       -0.00442697602408
N            0.57989451192676       -1.79603331009950       -0.00448371654572
C            1.79149489031159       -1.23841892142228       -0.00313240557688
N            2.77517423278300       -2.16093258084157       -0.00343442901585
H            2.49875657735141       -3.12701070911084       -0.00469221588911
H            3.74656177590632       -1.90338995244753       -0.00266554819139
N           -1.70933922731731       -1.85927132729770       -0.00582776476109
C           -2.70241270510663       -0.96021901144298       -0.00527156171110
N           -3.97920201275335       -1.33423528639870       -0.00633849198090
H           -4.19795067415883       -2.31561081403121       -0.00758872857920
H           -4.71267437620060       -0.64620009622728       -0.00588680310366
C           -2.23505304232265        0.39561750140177       -0.00346524851443
C           -3.06054580092933        1.51546162741652       -0.00252084875041
N           -3.79304050950114        2.40251508614185       -0.00191111911109
N            1.88454016155957        2.49169755303293        0.00082932748102
H            2.88267842898759        2.60581692045364        0.00157983554402
H            1.27713197380758        3.29223359976542        0.00144271071004
