17
 energy: -34.490324575220 gnorm: 0.000340867269 xtb: 6.6.1 (8d0f1dd)
N            3.06844928698243        2.05075890020250        0.64767898399903
C            2.22610329350565        1.30014947603978        0.43044697116772
C            1.25873021397845        0.33076599494952        0.17048373327468
C           -0.11742348542084        0.44609952180615        0.04030744532637
N           -0.84319570599304        1.52693430733908       -0.16323408543285
C           -2.13627080554706        1.50707498092445       -0.36940279306043
N           -3.04029194989234        0.62432305851597        0.01847357570208
C           -2.81925874040454       -0.62353703378879        0.33879275767863
N           -1.80351954175525       -1.41964906536121        0.04727809653541
C           -0.58858620130407       -0.99304030334267       -0.16103448322136
N            0.45565103418766       -1.79217977340236       -0.33608926108183
C            1.55180450498699       -1.05172683631858       -0.11094880456569
N            2.76693555732860       -1.58207892013909       -0.16073425601920
H            3.57888672583512       -1.02567529151291        0.04852530140064
H            2.86231872304184       -2.55511573245093       -0.39840455719737
H           -3.64719668919868       -1.12652687348863        0.83139189985240
H           -2.54034370843305        2.41247317812566       -0.81210012175622
