25
 energy: -44.274059191747 gnorm: 0.000592372357 xtb: 6.6.1 (8d0f1dd)
N           -4.04777519171340       -1.20272821690220       -0.27280420411778
C           -3.01319042227309       -0.70173919497506       -0.16787464761493
C           -1.75694027076376       -0.09242656526741       -0.06128628423247
C           -1.77470033408334        1.32941064463297        0.08019794952443
N           -0.80761321211903        2.23082286031896       -0.00966263632588
C            0.49123437169654        2.00315549897844       -0.11754071989992
C            1.19644662053303        0.83091091775233       -0.04644263587207
C            2.61586694640337        0.67680999533520       -0.06106888937881
N            2.98096144200544       -0.59884342988335        0.04932013503952
C            1.84926050565139       -1.33192792762566        0.12031803874727
N            1.93627644688556       -2.71313068247011        0.22316305915656
H            1.38798886332606       -3.10381537448840        0.97936370627312
H            2.90719972547496       -2.99302286178052        0.29282434837245
C            0.69249752868836       -0.54419332139148        0.04609163164983
C           -0.63664253591786       -0.96260169211074       -0.07450160163428
N           -0.87995416753049       -2.29368224327782       -0.16799523344071
H           -1.81671724472479       -2.59711142715260       -0.38164601964610
H           -0.11322540443771       -2.89165412130856       -0.43028967553994
N            3.54338874112904        1.67002211368188       -0.07994425471001
H            4.48919433156651        1.37407758148000       -0.25506140652950
H            3.27191107969184        2.56285074517892       -0.45371298698435
H            1.05587842412347        2.92511137572304       -0.24221313622745
N           -2.98350816758779        1.89827397783861        0.28932185193599
H           -3.82706664344072        1.35220597259539        0.30319063358819
H           -3.02456656618358        2.90180400921823        0.31528826766691
