23
 energy: -40.830135758196 gnorm: 0.000726985589 xtb: 6.6.1 (8d0f1dd)
N           -3.43982096768503       -1.90962352138609       -0.21597904311372
C           -2.54695326955011       -1.18496492591756       -0.13457659949513
C           -1.45850899657579       -0.30268608102116       -0.05072992799378
C           -1.79693153838396        1.07490457590239        0.07080397774800
N           -1.04937099358682        2.17397961034124       -0.02369836780909
C            0.25699879961039        2.24843205483099       -0.12200776144199
C            1.21589232728519        1.25600079192271       -0.04860531538093
C            2.61220272755103        1.43056130715588       -0.06322113762549
N            3.26433417164317        0.28128427764772        0.04121204691497
C            2.33864108258565       -0.69746115683885        0.10958558766632
N            2.73584812598647       -2.02568068565495        0.20539811051095
H            2.32730695230251       -2.52214262110113        0.98827453415642
H            3.74741412072472       -2.07770653447831        0.23356106679970
C            1.02986082191157       -0.18982278062761        0.04184385617704
C           -0.17120993704520       -0.90099621019511       -0.06975985079633
N           -0.10403853968252       -2.24826423765550       -0.16383545856163
H            0.78594432595399       -2.65788306916049       -0.40050162848122
H           -0.94467073778347       -2.76845687753108       -0.35699993074519
H            3.14599973402223        2.36086956029349       -0.12531197473890
H            0.61421630474029        3.26759340973952       -0.24939605719741
N           -3.10053121468346        1.37081154428193        0.26198887903292
H           -3.80700228877460        0.65587974404028        0.28551397355097
H           -3.35630992066616        2.34242754301168        0.28025605522343
