26
 energy: -44.802216199731 gnorm: 0.000708859639 xtb: 6.6.1 (8d0f1dd)
N           -2.26565862411963       -3.53994977518711       -0.07727201822692
C           -1.86860175989257       -2.45859338751087       -0.05449996490375
C           -1.41114126714265       -1.14565318635795       -0.02561781849801
C           -2.23992797521196       -0.00027281556472       -0.00734913045906
N           -3.58471977694748       -0.00061913800405       -0.00116226261370
H           -4.08762148240826        0.86864167343050       -0.01691005139538
H           -4.08732636214286       -0.86881314901433       -0.05052418295519
C           -1.41153430716305        1.14531282411348        0.01564478558229
C           -1.86949068545192        2.45823148840509        0.03551250131014
N           -2.26709495497261        3.53944186114628        0.04882349164102
C           -0.05756693831410        0.73309304024126        0.01189417339477
C           -0.05732222641896       -0.73312270939781       -0.01338265334141
C            1.02228019296963       -1.58457033004425       -0.01692478801628
C            2.38934076784620       -1.26959393966868       -0.00222774039175
N            3.25165135267223       -2.33543447648927       -0.06039490183101
H            2.88496919535342       -3.25290952787212        0.12447667600405
H            4.22015638129636       -2.18771899906220        0.16435751261384
C            2.96596932874388        0.00035491023216        0.00686026999564
C            2.38899129344448        1.27016534412724        0.01313594752420
N            3.25073670415473        2.33620438120729        0.07556344797459
H            2.88477400510043        3.25365196087099       -0.11078346091840
H            4.22041287676934        2.18877173194986       -0.14429369467056
C            1.02179211925190        1.58480493069346        0.02098469184894
H            0.78123388306326        2.64261617158681        0.03613985479666
H            4.05155822081124        0.00049067104579        0.00951031052070
H            0.78206568020888       -2.64243471917682       -0.03345124618534
