17
 energy: -34.488391780295 gnorm: 0.000414572221 xtb: 6.6.1 (8d0f1dd)
N           -2.32272012276724       -2.54931904749760       -0.00631899648238
C           -1.62165291508437       -1.64150744993876       -0.00644414384848
C           -0.82292345824141       -0.47403503073749       -0.00614450857764
C            0.54666286944340       -0.61504927295360       -0.00740058803801
N            1.21314333737905       -1.77738294690403       -0.00766466639932
C            2.49397581017518       -1.42570912773751        0.00217276414292
N            2.77311273393546       -0.11708128167371        0.01004407118244
C            1.59281838048809        0.48552726915356        0.00258720748681
N            1.43766514510070        1.78768482665051        0.00250692599216
C            0.27836078711454        2.40396656658543       -0.00561320298981
N           -0.97495556629228        2.00792765029085       -0.00356327359016
C           -1.50189563680245        0.79229594366204       -0.00055695487625
N           -2.84426430173492        0.78123367991438        0.00666283433356
H           -3.32161807568501        1.66687046398543        0.00954119072840
H           -3.36602629209178       -0.07934896404526        0.00786553903930
H            0.37118026137463        3.48811025563709       -0.01253606156675
H            3.27634741578843       -2.16317646889134        0.00404779576322
