24
 energy: -40.549528667159 gnorm: 0.000372080661 xtb: 6.6.1 (8d0f1dd)
N           -0.05670712959251       -3.65148334570084        0.02662913667968
C            0.13229923099493       -2.51621746712216        0.00080885985399
C            0.40153739040554       -1.13509847427417       -0.01165596905582
C            1.77119899909968       -0.76398958790925       -0.02736389723197
N            2.32742169384595        0.43437157491466       -0.01365347535563
C            1.77402233750510        1.63511808113468        0.01145459262753
N            2.70392933433921        2.64051896922493        0.08934210820974
H            3.65850375239121        2.37224019482901       -0.07768439126899
H            2.43487564479244        3.57747355200511       -0.15281129190896
C            0.42235472663999        2.01997038117498        0.01573689114335
C           -0.68954365311240        1.20799584857852        0.00842441873290
C           -2.01790069234957        1.62521747713357        0.01989894894962
C           -2.84253225757691        0.49421046986862        0.02117524413977
N           -4.19548779245939        0.49565208276703       -0.00894960673145
H           -4.68949324724819        1.35378449543240        0.16154300311183
H           -4.68654423592996       -0.36640911006188        0.14976348897572
C           -2.03591520410253       -0.66788249646075        0.00835851282561
C           -0.71201364775544       -0.28404669120206       -0.00067576322807
H           -2.40132526712946       -1.67784235390831        0.00440538072270
H           -2.35330138841024        2.64539098001388        0.02970114344484
H            0.23673306441946        3.08806848016047        0.03193497289678
N            2.69227811042917       -1.76866538501834       -0.10737191884558
H            3.65467520678669       -1.51316700102768        0.02406183790453
H            2.41287489481725       -2.72147309715242        0.04850074320789
