24
 energy: -40.557880457119 gnorm: 0.000605004792 xtb: 6.6.1 (8d0f1dd)
N           -3.50107749195197       -2.15003076303433       -0.08554696799092
C           -2.72879011536072       -1.29505051399442       -0.04816700513188
C           -1.82221000395294       -0.24635079487390       -0.01099412824086
C           -2.15296223533829        1.13958151818098        0.01402860652292
N           -1.07120672325956        1.92259263854699        0.03176845891423
C            0.00335566981761        1.10965270832058        0.02277328260422
C           -0.41661881395734       -0.30352402585915       -0.00519517713155
C            0.36657324208079       -1.43736468075691       -0.01450718018624
C            1.76140245028605       -1.52538281314666       -0.00709549098764
N            2.28958617316195       -2.79347874681291       -0.07547903474821
H            3.25619535759681       -2.92297177856310        0.16863433049176
H            1.67747553558833       -3.56607106810529        0.12280019581720
C            2.67999566692073       -0.47156342255400        0.00008995147061
C            2.49592437042885        0.90789857472415        0.01166806258339
N            3.63341198044260        1.67842119544264        0.07299528902380
H            3.54504991027619        2.65889938320974       -0.13003166887695
H            4.51224703224356        1.25444566262319       -0.16963288508146
C            1.28135010834269        1.61113223378308        0.02815814725213
H            1.34619767313625        2.69180642274445        0.04722827417652
H            3.71930455931878       -0.78627464153444       -0.00438746095537
H           -0.17078696108951       -2.37984135778768       -0.03040681429958
N           -3.39814553452244        1.64755604540993        0.05587419015809
H           -3.50830449817723        2.64113236339111       -0.03853347930199
H           -4.18511956223127        1.04278876614572       -0.09940018078219
