25
 energy: -45.068828958227 gnorm: 0.000460645663 xtb: 6.6.1 (8d0f1dd)
N            0.87819504505889        3.69323497549189       -0.04884600738103
C            0.55660962868828        2.58923751816735       -0.03504334541675
C            0.14659634345037        1.23885082926468       -0.02244171846258
C            1.17620103604483        0.29541886302167       -0.03666656688278
C            1.02745220240111       -1.20592216574307       -0.01900105587576
N           -0.05924745957792       -1.94577936014606       -0.01888622497224
C           -1.31873132419291       -1.55846681872725       -0.02648703589438
N           -2.18414100516938       -2.60522457776903       -0.08100031694813
H           -1.78813150930494       -3.52653470136531       -0.03411882118109
H           -3.17636477005352       -2.47583873780648        0.00236399933257
C           -1.88794333109138       -0.24907724457185        0.00427045268761
C           -3.29423331577025       -0.21748246862375        0.03161032512908
N           -4.44569220001292       -0.20081932673305        0.05776965030672
C           -1.25139571364581        1.00940304778704        0.01111592487951
N           -2.04975433118735        2.10830234764898        0.06008023787682
H           -3.04965098053974        2.01028140631374        0.05003113033205
H           -1.64412825865189        3.02708045469854        0.03098709312736
C            2.30468866912405       -1.73183867810709       -0.01348034670628
C            3.22910706296828       -0.66788030306374       -0.03611548275580
N            4.56597761104646       -0.79602923392864       -0.03950735065697
H            4.98941510116035       -1.70620936977021       -0.03163971025310
H            5.15383538864865        0.01757079992060       -0.06646087337383
C            2.53049955904772        0.55923579266925       -0.05176893593656
H            2.98587045040996        1.53209468011883       -0.06768391023967
H            2.54741308284844       -2.77598708354706       -0.00069611543482
