23
 energy: -40.825222315177 gnorm: 0.000797692678 xtb: 6.6.1 (8d0f1dd)
N           -4.32007394675185       -0.28989989177636        0.22961011801618
C           -3.18063071687953       -0.14342436248314        0.15156323143205
C           -1.79884743929733        0.01972784342319        0.09159747615717
C           -1.11704767093169        1.23905626123150       -0.03559363010146
N           -1.70538066274547        2.45769028962944       -0.18896842944972
H           -2.68673548586801        2.52571555196495        0.02478392256446
H           -1.15174229093106        3.27856801643803       -0.01682852576207
C            0.27734687310608        0.97211786364246        0.00075043682496
C            0.42800843001599       -0.49716364785384        0.11553928843763
C           -0.85069691439963       -1.04267581465685        0.15961925145491
N           -1.19436184908007       -2.38097172353503        0.22087203799912
H           -2.17377432125054       -2.53434487029441        0.42050842914517
H           -0.58649877752921       -2.95293038790117        0.79007954980118
C            1.65515741208508       -1.15960215601190       -0.09683062287478
N            2.86714678048002       -0.66428042225771        0.14408202842260
C            3.18214716851437        0.58860122554835        0.37018601664466
N            2.59277045124847        1.72094243576706        0.06749550253723
C            1.29733706465231        1.87576705214589       -0.18335195794324
H            1.04387069154959        2.88877656342204       -0.48734406913372
H            4.18151328598373        0.71457657247140        0.78499935100339
N            1.65070976559357       -2.46200898706191       -0.46478584533032
H            2.54077869867917       -2.86425305216738       -0.70792551886198
H            0.81212847365591       -2.85860241958451       -0.85411079248326
