24
 energy: -45.365502988538 gnorm: 0.000891821212 xtb: 6.6.1 (8d0f1dd)
N            4.29476068690684        1.32883397910187       -0.01760113508105
C            3.30314462137658        0.74316961240687       -0.01350171152869
C            2.12316798247459        0.01149998702867       -0.00997093301293
C            2.02197309877884       -1.40893139656668       -0.01167992993161
N            0.74563604891036       -1.82959423227762       -0.00766927383912
C           -0.02507001922607       -0.74075379327851       -0.00377990013250
C            0.80161599305403        0.49038874821638       -0.00382013566161
C            0.37883401680077        1.79888286438691        0.00346421197222
C           -0.95053021272129        2.25766413017975        0.00865919349141
N           -2.09265789377630        1.58062692050255        0.00024828431571
C           -2.32551091979453        0.28436380469865       -0.00227010986401
N           -3.64364451402836       -0.01998177548134       -0.01181813353037
H           -3.95842727833707       -0.97414978675794       -0.00521340064495
H           -4.30511376113779        0.73510655910379       -0.00121741361673
C           -1.41116448425977       -0.81506412002060       -0.00107769391500
C           -1.97471157113130       -2.10827573886848        0.00078910680171
N           -2.48875203904370       -3.13566177004987        0.00311572384229
N           -1.13939855613507        3.60126194034024        0.04264611965242
H           -2.07885019746467        3.94992293236725       -0.01936516404074
H           -0.36675615976163        4.23533394187043       -0.04115986043436
H            1.15143857299753        2.55866687924908        0.00657482479703
N            3.03799947658342       -2.27574283843613       -0.01713386510113
H            2.83454296489452       -3.25948814505646       -0.01610061497137
H            3.98879704904010       -1.95178317445891       -0.01922821016661
