21
 energy: -37.390084333064 gnorm: 0.000572057644 xtb: 6.6.1 (8d0f1dd)
N            2.65267513132416        2.72072806235385       -0.01754376223631
C            2.10265298068700        1.70890417487619       -0.01403941838881
C            1.45615192634308        0.47940931333795       -0.00890742892658
C            2.09232645124040       -0.79732688615969        0.00034944025633
N            1.21375801125169       -1.80793444722902        0.00379259083513
C           -0.00895872314998       -1.27736985556340       -0.00367652001714
N           -1.06390771128300       -2.04972280701276       -0.00454626612432
C           -2.32109542705196       -1.64874915210313       -0.00857669945724
C           -2.91049375126850       -0.39934983710728       -0.00663426326459
C           -2.31936680825367        0.87893250801342       -0.00790970828166
N           -3.15854147626805        1.94985388924203       -0.03832273153164
H           -2.79038813515780        2.87861962183665        0.06281813584097
H           -4.14769373206414        1.81828373397627        0.07338490540163
C           -0.94539059463485        1.14299637420302       -0.01140204398466
C            0.07845921830420        0.22152040472561       -0.01095874251415
H           -0.65266450039074        2.18823486113561       -0.01383359359059
H           -3.99462273173686       -0.39867045129958       -0.00632125455307
H           -3.01012765830774       -2.48984378552071       -0.01050986523525
N            3.41084712223183       -1.01877940041373        0.00741209438403
H            4.06009358141179       -0.25257689787569       -0.00013789183539
H            3.73899785247315       -1.96791812011564        0.01089611222333
