22
 energy: -41.126504666376 gnorm: 0.000852986821 xtb: 6.6.1 (8d0f1dd)
N           -3.53901997425399       -2.15391065562869        0.00696443258488
C           -2.75609204032942       -1.30858881172006        0.00412190902113
C           -1.83182451098604       -0.27329759006045        0.00258043252393
C           -2.13969507277438        1.11745934178388        0.00199645031861
N           -1.04509905975484        1.89520715660450        0.00106073586356
C            0.01158451450253        1.08608063534501        0.00102676904850
N            1.22284135712504        1.56767079949724       -0.00094544011983
C            2.35461886800561        0.86202856671357       -0.00260357724483
N            3.45536904131593        1.64394072497426       -0.01545217025382
H            4.36595064291512        1.22406325500457        0.00712189902194
H            3.33394967800027        2.63990199308754        0.00157373368713
N            2.62317290061042       -0.43718698812608        0.00095237713062
C            1.78228029582614       -1.46086578426612        0.00768195861745
N            2.40443274421879       -2.66497348197875        0.03375665345611
H            1.88608956476953       -3.52092912731464       -0.03563662296177
H            3.40699826001242       -2.68127691564996       -0.01648493032358
C            0.37058859385852       -1.46505261119502        0.00567448973123
C           -0.43055293290930       -0.35176277124229        0.00292911884108
H           -0.11692870782488       -2.43345564347268        0.00841110854679
N           -3.36589061183567        1.64833989329045        0.00240718660104
H           -4.17885622987931        1.05828250825370        0.00235634765515
H           -3.45848632931257        2.64841875099987        0.00153383215476
