23
 energy: -41.618432069955 gnorm: 0.000729127475 xtb: 6.6.1 (8d0f1dd)
N            1.81242887235696        3.37658659504754        0.05143568652874
C            1.31340865774168        2.34236760543309        0.03536711826656
C            0.67804288899935        1.07761630306660        0.01793589207670
C            1.52335916570499       -0.02321946571385        0.01982646541691
C            1.11413086849593       -1.48310226772214       -0.01638759430927
N           -0.07794586222516       -2.01912696020789       -0.00962054399980
C           -1.25625215700624       -1.42206276994585        0.01780747758014
N           -2.28425194645435       -2.30622675349474        0.07168961066722
H           -3.24418617200891       -2.01315385380848        0.03996554668175
H           -2.05099165815339       -3.28247822556750        0.03987355268692
C           -1.58504132036351       -0.03318086775667       -0.00393009686475
C           -2.96762904979049        0.24244726506155       -0.02164923575369
N           -4.09787154650736        0.45780688651807       -0.03882566565521
C           -0.74403588982805        1.09736860931858       -0.01005197306174
N           -1.33667747212463        2.31841617928207       -0.04262827851887
H           -2.33829459865066        2.40003295998110       -0.05204738686294
H           -0.77758960730605        3.15359784560383       -0.03651122397283
C            2.29498731045394       -2.21752505856179       -0.04380602689255
C            3.36921030819753       -1.32979828209746       -0.01540656529898
C            2.91292599547716       -0.01093407511062        0.02505344659279
H            3.52874807101857        0.86874461861699        0.05063477943979
H            4.40601615249548       -1.61778472772771       -0.02386443322228
H            2.35082795647722       -3.28758357341472       -0.07364629532464
