23
 energy: -41.638522387691 gnorm: 0.000904817295 xtb: 6.6.1 (8d0f1dd)
N            4.35698071376832        1.14169050707312       -0.00795026528602
C            3.30201287369976        0.68156245250618       -0.00602811064958
C            2.04577418953738        0.08693074679858       -0.00375983691531
C            1.79615703585271       -1.31817196019331       -0.00649384345716
N            0.48492366494824       -1.59499799859160       -0.00474959797005
C           -0.16614312187567       -0.42691170699277        0.00021217597357
C            0.78463039745160        0.70200677385966        0.00036483004290
C            0.50896351442569        2.05889759874609        0.00047694669470
C           -0.73859967797962        2.65965103620031        0.00232159893695
C           -1.99982612028251        2.09134577877999        0.00623953764374
C           -2.40551154640220        0.75026137835926        0.00996412769617
N           -3.74444792389340        0.51557617863958        0.04072653369060
H           -4.39278824850789        1.27817854018035       -0.03302141959671
H           -4.09443429134230       -0.42485086857692       -0.02145858055342
C           -1.55732872093856       -0.38581426870355        0.00322310975558
C           -2.19023621052298       -1.65206347301153       -0.00615477668014
N           -2.75077557833093       -2.65368865720051       -0.01951382834010
H           -2.82325354016527        2.79699989122099        0.00894860019663
H           -0.72893516192601        3.74264376024255       -0.00008130050637
H            1.37113268194612        2.71492485501978       -0.00201100246726
N            2.71733479385514       -2.28648053269917       -0.01118278383153
H            2.41295209987899       -3.24357746562677       -0.01024450385278
H            3.69617337930307       -2.06198151913037       -0.00848333022433
