20
 energy: -37.676085420878 gnorm: 0.000301572932 xtb: 6.6.1 (8d0f1dd)
N           -3.69518461598995       -1.77779304553432       -0.00847859274919
C           -2.77137873709083       -1.09133313236321       -0.00777268484353
C           -1.68302771711480       -0.22610478405743       -0.00925389979077
C           -1.76941556866065        1.20685181675507       -0.01658282243804
N           -0.57040231932425        1.79586515165249       -0.01604492322735
C            0.34672258145415        0.82558558864207       -0.00850966427609
N            1.61532472105171        1.11064744941942       -0.00568536616193
C            2.62798683158872        0.23892848412345        0.00176865983416
N            3.83719428507280        0.83177688881912        0.00469200771997
H            4.66424950471654        0.26311209068652        0.00894558783294
H            3.88607334397835        1.83444021876554        0.00018963564119
N            2.68593792909284       -1.09324770679970        0.00656535912299
C            1.68784099380159       -1.94801112243022        0.00682609243299
C            0.31158585945313       -1.75459180369571        0.00276882367970
C           -0.32199170369493       -0.52270495599251       -0.00408134290034
H           -0.31714158004248       -2.63678915342955        0.00462225187493
H            2.03168814390731       -2.97961614282168        0.01113603942217
N           -2.90006891661641        1.91321133348850       -0.02317232699277
H           -3.79290678927218        1.45155932133647       -0.02350981761957
H           -2.84456776181068        2.91659293603567       -0.02803530716147
