19
 energy: -38.728996994789 gnorm: 0.000891900757 xtb: 6.6.1 (8d0f1dd)
N            1.82148341916676        3.48547202157991        0.47803334464654
C            1.35390768256950        2.44741149331220        0.32972796473595
C            0.85313967238881        1.15329519876779        0.15850552810603
C            1.67654438236385        0.00100350113989       -0.00186365575961
N            3.00670102357367        0.00185616905410       -0.00262237584026
H            3.51437161840709       -0.85464365100214       -0.15520955471165
H            3.51343949073141        0.85898991863002        0.14933805452858
C            0.85444960343776       -1.15232729597522       -0.16135483122911
C            1.35678532535300       -2.44577335551121       -0.33333420328143
N            1.82581452781868       -3.48318413003898       -0.48397403779257
C           -0.47957533556733       -0.75909244897995       -0.03746665664273
N           -1.50386590363205       -1.53221763892830        0.22865565739133
C           -2.72819692743716       -1.09093961550105        0.43751248952098
N           -3.32009372081566       -0.00205470698305        0.00093421941583
C           -2.73014391311965        1.08758148891608       -0.43632618321002
N           -1.50605078703792        1.53027892797357       -0.22901327734481
C           -0.48050122443651        0.75839683789035        0.03604399192820
H           -3.38016928646977        1.79038232079456       -0.94936817805176
H           -3.37664993069724       -1.79451765033737        0.95024360389075
