21
 energy: -42.972142462392 gnorm: 0.000618335826 xtb: 6.6.1 (8d0f1dd)
N           -3.59412996671573       -2.44613434346634        0.00003115697323
C           -2.63898808625088       -1.81499054624019       -0.00014420105528
C           -1.42919674008576       -1.07146294054751       -0.00006294165070
C           -1.54088303768075        0.31662126263245       -0.00029168079389
N           -2.68677409440745        0.99242366650234       -0.00061264432822
C           -2.32421963400417        2.27956891340949       -0.00067171598701
N           -1.01834828677103        2.52782954744288       -0.00044299616464
C           -0.44014979641948        1.31951305936910       -0.00024622096028
C            0.93419954589399        1.13649884399655        0.00002227537292
C            1.70057994315583        2.33151851357016        0.00109720719724
N            2.36417044521401        3.26612339774340       -0.00118247452875
C            1.65861774985332       -0.08180872421915        0.00033177939304
N            3.00455012404329        0.00054061209215        0.00068822975557
H            3.45524978060986        0.90091767135608        0.00062093922355
H            3.57093607139339       -0.83147483481637        0.00093051305529
C            1.07941027549351       -1.38199024273638        0.00042969537407
C            2.01341505067409       -2.45348942826334        0.00225575881972
N            2.76959346043330       -3.31522334337340       -0.00071719175901
C           -0.24460647521679       -1.80502264592875        0.00030201231076
H           -0.37359793746390       -2.88277285827750        0.00059400285606
H           -3.05128434214860        3.06989332805430       -0.00088708690369
