24
 energy: -46.151636201540 gnorm: 0.000705961289 xtb: 6.6.1 (8d0f1dd)
N            1.22407346168722        4.15031555079060       -0.00226662020902
C            0.77210927491525        3.09601728828057       -0.00229127801214
C            0.22390555626165        1.79030649589371       -0.00174903657373
C            1.15640807702075        0.73406292282342       -0.00434147301054
C            2.52922539222783        0.81151257749733       -0.00713435603880
C            2.99840673123840       -0.53134531101274       -0.00897261181413
N            1.99123319280499       -1.42196932107882       -0.00747331479509
C            0.85573959582858       -0.72098736119042       -0.00465517008274
C           -0.37486432287008       -1.36401936842800       -0.00257039374712
C           -0.29981322144011       -2.77944503389488       -0.00346169134884
N           -0.29766673546276       -3.92670316738527       -0.00508647426448
C           -1.68060247421579       -0.80548106806956        0.00044546290002
N           -2.71700533970905       -1.67470801944762        0.00204398393842
H           -2.54488538725683       -2.66572647273979        0.00104944070888
H           -3.66455116584984       -1.33728352076701        0.00416411339078
C           -1.98836206912991        0.57562399731929        0.00195754418065
C           -3.36854379359212        0.89208936591865        0.00516978753346
N           -4.48857643135201        1.14467858987061        0.00726202234107
C           -1.15553491568833        1.69933466927515        0.00100343893218
H           -1.68381719021205        2.64734702470365        0.00271013421178
N            4.27000399045535       -0.93571274757491       -0.01187051845218
H            5.02399710076967       -0.27309110487030       -0.01294254894721
H            4.46037730434321       -1.92266623937350       -0.01289504654428
H            3.13587551472597        1.69511963355988       -0.00779574679692
