25
 energy: -45.870287723133 gnorm: 0.000919003584 xtb: 6.6.1 (8d0f1dd)
N           -2.95687404254472       -3.74474261783204       -0.01649102098168
C           -2.38716344081639       -2.74852836481475       -0.01215155090667
C           -1.66466654206562       -1.53300386069082       -0.00997061926931
C           -0.26692228387584       -1.65343817638583       -0.01721157488980
C            0.67365256570106       -0.65789413561752       -0.01683431644745
C            0.49274262865850        0.80942470053390       -0.00183039399641
C            1.76425348065363        1.37070414824759        0.00437290441431
C            2.73092136846869        0.34814125715952       -0.00866002506768
C            4.11745153753529        0.52477269545723       -0.01913331167680
N            5.26012594717624        0.64658452470085       -0.03728237416468
C            2.07979337378015       -0.89681923855366       -0.02457143423845
N            2.70350105272967       -2.10029515974154        0.00953001652202
H            3.69807148494708       -2.11873488902175       -0.14034528750800
H            2.19272445170726       -2.93638623442525       -0.21063361722887
H            2.02473042004828        2.41347204060286        0.01503983607818
C           -0.71170215017994        1.53242696868861        0.00585587348669
N           -0.65197034034429        2.87763632820110        0.01696068106886
H            0.23142602650000        3.35294214450130        0.02589267838819
H           -1.49706731025726        3.42458035294504        0.02711728795873
C           -2.02472377770798        0.96399326089290        0.00060047127278
C           -3.09308220108093        1.88995310876647        0.00306435214144
N           -3.95648330299021        2.64809431589513        0.00265177729520
C           -2.42323447639853       -0.36453585038435       -0.00379185945713
H           -3.49846686317903       -0.51501166868721       -0.00274961785295
H            0.09907261663484       -2.67470454393759       -0.01897836264068
