24
 energy: -45.362034063981 gnorm: 0.000585344229 xtb: 6.6.1 (8d0f1dd)
N           -4.11946666014591       -0.13894421161765        0.00522076143987
C           -2.99057105725668        0.07373080497882       -0.00241018932422
C           -1.61680453639147        0.40018638897108       -0.00628669352824
C           -0.74341968363453       -0.67949408416983       -0.00325387716818
N           -1.14297515621454       -1.94950530338435       -0.00194597829657
C            0.00000210246944       -2.66474481751488       -0.00316363588084
N            1.14299046693531       -1.94952485508480       -0.00447521290050
C            0.74345510082962       -0.67950760837840       -0.00329383239567
C            1.61686189133030        0.40015563293087       -0.00036889459505
C            2.99062032551274        0.07367306059001       -0.00442514826729
N            4.11951034537876       -0.13897388826532       -0.01148578039519
C            1.27854357396407        1.77840517938188        0.00323515380687
N            2.32044472466258        2.65083677547062        0.02897938779290
H            3.26405958076027        2.30688976675335       -0.01433115015716
H            2.16090100557832        3.63950637514889       -0.02737504044588
C            0.00004656621968        2.33428504542890       -0.00344476158296
C           -1.27846093704216        1.77842898353107       -0.01006045586935
N           -2.32034134304940        2.65087777587846       -0.03595349329912
H           -3.26396743509943        2.30696050623654        0.00741758612164
H           -2.16078720148458        3.63954968802276        0.02032869199844
H            0.00005754561062        3.42035330772264       -0.00352660713366
N           -0.00000643839375       -3.99605016152442       -0.00302081312000
H            0.87562198884384       -4.48642555992508       -0.00526966851024
H           -0.87564338418323       -4.48641261998109       -0.00093462658959
