24
 energy: -41.346019086008 gnorm: 0.000717958068 xtb: 6.6.1 (8d0f1dd)
N           -0.72624207431860       -4.31762143314382        0.00948458297410
C           -0.59977259930397       -3.17632544712096        0.00585927489162
C           -0.42054133363316       -1.77536508779726        0.00382529168789
C            0.91038992501303       -1.32884238480166        0.00818201996868
C            1.37720312520034       -0.04273250496879        0.01150455969496
C            2.76031320314208        0.30868607786388        0.02002839147695
C            2.86050361375143        1.69617044440052        0.00937026698988
C            1.58233491020543        2.24766838680727       -0.00069630247123
C            0.62405052034731        1.23024870629410        0.00268776447104
C           -0.76057498384676        1.41515520940434       -0.00449947052580
N           -1.24592263497173        2.67605480138619       -0.01153678408710
H           -2.23825183174244        2.83913145966806       -0.02844338873395
H           -0.62328612660603        3.46129415736685       -0.03283826816282
C           -1.74430081872856        0.37140571577949        0.00034586079196
C           -3.09041001134323        0.79753978839062        0.00124406090245
N           -4.18372919428357        1.15341277730531        0.00464871914232
C           -1.58207303910636       -1.00472544824932        0.00156654903074
H           -2.50856634806985       -1.57116244684613        0.00124047576491
H            1.39691429628461        3.30690509183488       -0.00567807847314
H            3.78007748236918        2.25268849051692        0.00952320954467
N            3.81312097208368       -0.56381526044733       -0.03180478497765
H            4.71568345640281       -0.18844831619370        0.20802990412292
H            3.65490159579636       -1.51218480917594        0.26428773486844
H            1.65188377835802       -2.12114389737310        0.00359646950811
