23
 energy: -41.629751276356 gnorm: 0.000799566117 xtb: 6.6.1 (8d0f1dd)
N           -3.21471673972143       -2.77653139727930       -0.00052733118260
C           -2.33206940818737       -2.04088650580871       -0.00059207036561
C           -1.26705878318535       -1.11184868761854       -0.00015921656971
C            0.00026463330842       -1.67884286205025        0.00005026361923
C            1.26743476574984       -1.11150707576056        0.00053199423951
C            2.33269310120091       -2.04026356443486        0.00161034627527
N            3.21554471598027       -2.77568673204458       -0.00021266034347
C            1.63824441711187        0.26327306406071        0.00084093352888
N            2.95482534555835        0.53823068129051        0.00146724653061
H            3.63059168861729       -0.20787547504892        0.00165194367034
H            3.27232134875372        1.49012984970550        0.00171401364433
C            0.72847871878596        1.33336124457623        0.00054667234039
C           -0.72876082104909        1.33316488471249        0.00018910953164
C           -1.07014472269861        2.69568271777750        0.00007569349482
N           -0.00043137884157        3.48744338043340        0.00028892038106
C            1.06949532863740        2.69597108442303        0.00060380634803
H            2.04791225862388        3.14259235307755        0.00080266995679
H           -2.04868198363484        3.14204020378306       -0.00021082079539
C           -1.63823813851505        0.26283162278771        0.00000540656747
N           -2.95489316963524        0.53743352903194       -0.00006841020809
H           -3.63045762442230       -0.20885569076592       -0.00024302751949
H           -3.27264658183054        1.48924677013168        0.00002222613870
H            0.00041117569346       -2.76500019337970       -0.00005822188274
