25
 energy: -50.671531722601 gnorm: 0.000963618648 xtb: 6.6.1 (8d0f1dd)
N           -5.15155323482371       -0.49116958920869        0.00347623108391
C           -4.00974266694810       -0.37390430901787        0.00414128086524
C           -2.60635439079089       -0.19997665272955        0.00140180750128
C           -2.14839024986527        1.16074401885418        0.00082841719988
N           -0.90692662290790        1.61177973597477       -0.00081201628114
C            0.22106816986532        0.95111951572215       -0.00232112124465
C            1.46553174269409        1.60218081437416       -0.00367255563616
C            1.68670109722491        2.98169822106973       -0.00309421982086
N            1.91958490778067        4.10643271374455       -0.00549365530285
C            2.49172901092766        0.62697945044557       -0.00504954198134
N            3.80291604175084        0.86183975112597       -0.00653604031335
H            4.14959178357961        1.80675424883662       -0.00697303414629
H            4.45328569067770        0.09287043996007       -0.00732973303591
C            1.88694349396923       -0.66730957391205       -0.00416325802754
C            2.65787424845682       -1.83407507792104       -0.00406086120179
N            3.39087986500605       -2.71908841285076       -0.00693291905204
C            0.49900995448382       -0.51710868570893       -0.00265639260566
C           -0.46488857919940       -1.52727689192784       -0.00137043065012
C           -0.02854352658245       -2.87764417624252       -0.00206658692240
N            0.26566081223518       -3.98498542636976       -0.00169893516972
C           -1.85465824321467       -1.36338196171198        0.00042027181326
H           -2.42645039813200       -2.28536735279566        0.00123229478335
N           -3.07343882281252        2.13905501517136        0.00207536445398
H           -4.05884100496747        1.93944463833932        0.00331138589513
H           -2.74574725440750        3.08985352377823        0.00163143449578
