23
 energy: -42.426187164976 gnorm: 0.000719760506 xtb: 6.6.1 (8d0f1dd)
N           -4.71998713262517       -0.23257039642201       -0.00295543723197
C           -3.61024240210115        0.06406546087192       -0.00197050284260
C           -2.25193467781904        0.39763154445738       -0.00101657195594
C           -1.71396747941203        1.68149793310740       -0.00032521313809
C           -0.31193064836829        1.59501149886456        0.00031105943032
C            0.51140262606040        2.72890477602978        0.00018728096032
N            1.11405919222138        3.70629616405534        0.00331883451732
C            0.06380668809801        0.23446163590183        0.00024713240796
C           -1.18907560551957       -0.54377694759594       -0.00071728673382
C           -1.35908211104770       -1.90802757940897       -0.00131171197317
C           -0.37150640951657       -2.89224343879141       -0.00104961999485
C            0.99587516087536       -2.75104484887030       -0.00018665324576
C            1.81224267503951       -1.60295233204748        0.00063266488439
N            3.15110019041364       -1.82502487283427        0.00154538789649
H            3.50907110628010       -2.76250554192098        0.00103538286850
H            3.80141287433217       -1.05827578183354        0.00180702974611
C            1.36924163032864       -0.25474501839007        0.00072427418150
C            2.42018458135812        0.69948312717649        0.00216207618099
N            3.34570823606621        1.37791650481052        0.00135124318747
H            1.55711976712590       -3.67900842409048       -0.00012389334220
H           -0.73328121621841       -3.91217327375333       -0.00159033250754
H           -2.38666187026383       -2.25247311427158       -0.00208718769893
H           -2.27431192910760        2.59892539975512       -0.00048513149650
