22
 energy: -42.691765846146 gnorm: 0.000822096557 xtb: 6.6.1 (8d0f1dd)
N           -4.72045028054347       -0.21403741190830        0.00206833917773
C           -3.60014085446848        0.03348868241503       -0.00038547997183
C           -2.23763565755375        0.36174938481294        0.00023302958927
C           -1.71031592364002        1.65478537752463       -0.00006786869505
C           -0.30864475157107        1.59743301078683       -0.00011503140061
C            0.50616365792467        2.73830136265752       -0.00053977118898
N            1.11943381624669        3.70855607223900       -0.00167567924769
C            0.09426174088497        0.24560706982947        0.00024212215137
C           -1.17066896371203       -0.56470600055728        0.00056978090220
N           -1.35553424934135       -1.85465640800296        0.00076883928428
C           -0.42823326627018       -2.79035195197892        0.00082809494621
C            0.95434881033309       -2.71600044939106        0.00088545418631
C            1.81046914843030       -1.60329863555531        0.00077057200544
N            3.14029912818859       -1.85131359329729        0.00083946910801
H            3.47790749858617       -2.79690853481674        0.00119312279751
H            3.80700269676066       -1.09802499563408        0.00087190584249
C            1.39246140835169       -0.23829735908519        0.00049109888190
C            2.45576837117123        0.70275992852647        0.00002161664855
N            3.38536300139524        1.37478787705134        0.00125725989019
H            1.46530499215075       -3.67199678463271        0.00104187701912
H           -0.85253842366717       -3.78945912302752        0.00086536985919
H           -2.28696031545650        2.56261499924413       -0.00041123248558
