23
 energy: -46.429438584987 gnorm: 0.000671502761 xtb: 6.6.1 (8d0f1dd)
N           -4.30814500401783       -1.66453514438802       -0.51020814754261
C           -3.17834285423073       -1.52556501610192       -0.36165166273865
C           -1.79969846796938       -1.36261294931876       -0.18656206533206
C           -0.85519517499394       -2.38505732166383       -0.04483638894686
C            0.42469792574720       -1.84265448321617        0.13419090907198
C            1.58683446272137       -2.60480165371344        0.30397197443730
N            2.51115302690736       -3.26997661406344        0.45025241807631
C            0.32594115779498       -0.43431801613272        0.09253572506133
C           -1.13734554135469       -0.12140557387485       -0.06561248047272
N           -1.74937149191200        1.02464923772343       -0.02524308370333
C           -1.18508160355844        2.22398993986084        0.12824301520074
N           -2.06050887737927        3.20509040256094        0.40379312227153
H           -1.74401054441553        4.15619966080531        0.45736667975456
H           -3.03916716094579        2.97962010239276        0.43596139489551
N            0.07470415436609        2.62072122030219       -0.01741617530760
C            1.17775960904343        1.91610431796141       -0.11965514706135
N            2.28004719956853        2.64083432918357       -0.38651949608724
H            3.19109860409809        2.21686023563531       -0.42907816561131
H            2.18071587110700        3.63693448457322       -0.47564292520001
C            1.34923175783111        0.48966430940156        0.05064072135386
C            2.69255846522280        0.05040750213928        0.10502215236879
N            3.81181310713403       -0.20157527200473        0.14119383778683
H           -1.07579547696430       -3.43777332176188       -0.06901144357509
