25
 energy: -51.450958891183 gnorm: 0.000938196149 xtb: 6.6.1 (8d0f1dd)
N           -3.58357775664185       -3.41851531553656       -0.00271407008220
C           -2.74774397377107       -2.63409015220866        0.00118301972756
C           -1.71227194082923       -1.66066064190504       -0.00077060127233
C           -0.43537335735879       -2.20732727470385       -0.00012144061648
C            0.81099869516588       -1.58020883918668        0.00020035408466
C            1.90029664489091       -2.49573559409790       -0.00040150329301
N            2.70975754130265       -3.30549427972277        0.00237407974770
C            1.08398412026096       -0.21337098212191        0.00007954150286
C            2.35975266941372        0.37590719825120        0.00063251115744
C            3.61168518508566       -0.25822201696424        0.00163466714857
N            4.66923772590231       -0.70196328942128        0.00189242404417
C            2.21148961984520        1.77282646267167        0.00020981252034
C            0.85448387557246        2.09550059360023       -0.00074358108759
C            0.39639748912314        3.42195758195201       -0.00211521032757
N            0.10934752235891        4.53265075002804       -0.00022448326169
C            0.09817248736579        0.89523793110964       -0.00075474082484
C           -1.28746242296042        0.82848455477226       -0.00162577085043
C           -1.99485180150158        2.06281127881551       -0.00098799240222
N           -2.66759571493377        2.99112573766727       -0.00520735875971
C           -2.14619396928142       -0.31038995910153       -0.00150569740653
N           -3.47822320191890       -0.09204782965478       -0.00199920953741
H           -4.11964794612905       -0.86772387764620       -0.00198506759649
H           -3.84755592154417        0.84427862813532       -0.00256181178726
H            3.01938445131368        2.48165535001946        0.00044387386504
H           -0.40438371883094       -3.29160248335119        0.00034522530740
