22
 energy: -42.697836898857 gnorm: 0.000929670521 xtb: 6.6.1 (8d0f1dd)
N           -3.19236586338191       -3.05347391826024       -0.00022189364406
C           -2.20561677759586       -2.46724297905450        0.00110399423565
C           -1.00217155996535       -1.75125353599988        0.00045645155407
C            0.28513484125775       -2.29217552037303       -0.00016904734110
C            1.23565666908728       -1.25953122121233       -0.00020759371442
C            2.61997402670248       -1.48063319654196       -0.00118816958282
N            3.74145955357550       -1.72402824428576       -0.00008576165375
C            0.56227257544142       -0.02149098254796        0.00037977568513
C           -0.90145817710460       -0.34013054393405        0.00082298171488
N           -1.94831361075897        0.43358734452406        0.00178870867783
C           -2.00620751071295        1.75836010972114        0.00235183757701
N           -3.27015150575217        2.23302914794953        0.00317950449017
H           -3.47304785115585        3.21545880775869        0.00558190228775
H           -4.02060612914456        1.56395181994041        0.00454656790513
C           -0.94285667991640        2.69933510219287        0.00171235185698
C            0.40805073376250        2.47622954257017        0.00095589173159
C            1.11022594761275        1.25128069326465        0.00041610502308
C            2.52341283968160        1.39793974242096        0.00256725041568
N            3.65012833234720        1.60509357056577       -0.00347028108953
H            1.03961179562485        3.35682400879567        0.00084444111866
H           -1.25660545245722        3.73607764389504        0.00205892018367
H            0.51962415675254       -3.34180822728921       -0.00054556603161
