21
 energy: -42.973548768323 gnorm: 0.000844268228 xtb: 6.6.1 (8d0f1dd)
N           -3.18899679698645       -3.06341942293097       -0.48148066344790
C           -2.21282470119269       -2.47712958362856       -0.34168799742566
C           -1.01731276856093       -1.76621543584069       -0.17428995789037
C            0.25189060631749       -2.30623937294182        0.00963163222974
C            1.20239058173904       -1.27462911580790        0.16541250313945
C            2.57291063352326       -1.49579559620999        0.36270752742146
N            3.68390580191919       -1.72240403441771        0.53849803397261
C            0.54337315932773       -0.04093217872757        0.07694105567784
C           -0.91897411737557       -0.35284537062232       -0.08590874803058
N           -1.94089030481938        0.44230147664302       -0.05689895162572
C           -1.91761369783312        1.77348514918418        0.05717646397900
N           -3.08519844450194        2.32941545089472        0.40843387749724
H           -3.89019002123527        1.73957583105136        0.53064799399005
H           -3.17272045358683        3.33048900772933        0.41260163298481
N           -0.93925204677513        2.63397884001178       -0.23536871778416
C            0.33693933616676        2.40533506981639       -0.33632905548676
C            1.08375771798321        1.23239523978116       -0.07036367172800
C            2.49152180132820        1.40339609097036       -0.07596453891508
N            3.61724890007536        1.61669794428468       -0.08278518473065
H            0.91041741629692        3.27548672052178       -0.64424428021010
H            0.48404651809038       -3.35646161996189        0.02998056438281
