19
 energy: -39.512982650544 gnorm: 0.000898436920 xtb: 6.6.1 (8d0f1dd)
N           -4.31055928030187       -1.08163041436556       -0.56482671156328
C           -3.18521134790408       -0.97270350170485       -0.37683623583891
C           -1.80353217042441       -0.85686117396817       -0.16263548518637
C           -0.90240138403634       -1.91779031853435       -0.02744171255278
C            0.39636477839266       -1.42716743725531        0.19087209503203
C            1.53048571820317       -2.23359691671243        0.37388194033245
N            2.43207780240216       -2.92260137948674        0.53931945076339
C            0.34972097644240       -0.02168457382527        0.17493109464662
C           -1.10365836275202        0.35308862314637        0.03526905818713
N           -1.65361841365048        1.51812170137129        0.22345109136164
C           -1.02184058940720        2.65349461764257        0.41486388481400
N            0.17428434742608        3.00709091934728       -0.00428462780593
C            1.19342710618854        2.25845732638519       -0.30787991784817
C            1.38527222601621        0.87693573164806       -0.04156230013811
C            2.71739704832562        0.40277533162912       -0.16986958980820
N            3.81196183202632        0.08562698749436       -0.28158299982418
H            2.02287049045212        2.78663941600857       -0.76912587976735
H           -1.61895574781825        3.45175281168907        0.84120213475309
H           -1.16183568497658       -2.96022587761117       -0.08283718565861
