24
 energy: -41.347424175806 gnorm: 0.000797242758 xtb: 6.6.1 (8d0f1dd)
N           -4.56577750726606       -0.55803440414574        0.00125353270327
C           -3.43606130620431       -0.34662444500841        0.00107803598302
C           -2.04930596997759       -0.07415600089449       -0.00040499764179
C           -1.24433893440218       -1.21464897583701       -0.00085720237886
C            0.13740524189362       -1.33042432114474       -0.00076700796030
C            0.63908605019752       -2.65432802126157       -0.00142136139733
N            1.03783539124129       -3.73044109178325        0.00126021916701
C            1.09954564634933       -0.30477552185278        0.00110366447768
C            0.83097711580946        1.15934791807580        0.00268007151735
C            2.07592625769192        1.78823094320076        0.00952799093335
C            3.07624021233365        0.81212966859617        0.01232495630933
N            4.40828287709775        1.02940804675596       -0.01530702050028
H            4.76427572780604        1.95916442599160        0.11849964312890
H            5.03681344455189        0.25663379636541        0.11469463230224
C            2.46534681473300       -0.46823366024189        0.00537327237615
H            2.99035059489935       -1.40507077645558        0.00486616632426
H            2.23870959407270        2.84953351180686        0.01242028767546
C           -0.38468558808013        1.80821952187342        0.00069366684336
C           -1.68702129443673        1.29559275033162       -0.00065277311199
N           -2.70155944892565        2.20582748158285       -0.00120446311030
H           -2.49952374737643        3.18802275694810       -0.00439639457974
H           -3.65933681213183        1.90321279794872       -0.00439186418387
H           -0.32466617974629        2.89216584317789        0.00069226217612
H           -1.79014705573031       -2.15285162882972       -0.00169834015304
