22
 energy: -37.913504160704 gnorm: 0.000689099651 xtb: 6.6.1 (8d0f1dd)
N           -4.12922515374191       -1.43547379518911        0.03667574617852
C           -3.15825805893247       -0.82082112333000        0.02315340436864
C           -1.96826749640975       -0.08788405640203        0.00724460905312
C           -1.85969829878499        1.30761634938744        0.00459489805176
C           -0.50946054785300        1.65997697204689       -0.00764399723372
C            0.01459057897707        2.95482664498248       -0.01263937299925
N            0.47582726182889        4.00786869492929       -0.01511385749106
C            0.27562558279023        0.47434843025121       -0.01232100658745
C           -0.66842372689529       -0.65026628416995       -0.00389292994433
C           -0.37629460131918       -1.99896994601978       -0.00824790957993
C            0.87981357598517       -2.59512134155185       -0.01447340041569
C            2.13130858400633       -2.01242478619155       -0.01421825350954
C            2.51128677460741       -0.66040756950599       -0.01568107920720
N            3.84882727694100       -0.39333689742930       -0.05777117885517
H            4.51192785933554       -1.13378807994086        0.08556749064341
H            4.16986977678199        0.54930631151813        0.07301831006249
C            1.64931454031452        0.44744608011184       -0.01717051620785
H            2.13329601619356        1.41933380603699       -0.02203961119277
H            2.96475084162059       -2.70657416496584       -0.01611815907120
H            0.87740075001915       -3.67775959506903       -0.01619336170968
H           -1.23142390131823       -2.66497509502958       -0.00526445718583
H           -2.68536664684656        1.99664762793065        0.01140446113275
