21
 energy: -38.973262824470 gnorm: 0.000663974676 xtb: 6.6.1 (8d0f1dd)
N           -4.46675508660197       -0.09338747623660        0.00017510275792
C           -3.32197040404277       -0.06932076447116       -0.00026705829711
C           -1.89904166014658       -0.03964185775571       -0.00002484530372
C           -1.34050031598369        1.23918216653107       -0.00012728124184
C            0.00818028569058        1.59487024048059       -0.00003591107605
C            0.25846199229016        2.99591349735747        0.00001451057135
N            0.43838089290598        4.12690923169956        0.00074155532284
C            1.13166239090952        0.77074645136957       -0.00011267993435
C            2.45907659828007        1.19202874106391       -0.00038565991560
C            3.28569425468768        0.06854407147048       -0.00025608183009
C            2.50671657766474       -1.08850524663733        0.00001425923589
C            1.16286173246249       -0.72309106705787       -0.00017769948468
C            0.07460213672730       -1.59333004477087       -0.00024141220769
C            0.38372542770887       -2.98254187268034       -0.00069351197930
N            0.61562288552595       -4.10378335558917       -0.00297510115056
C           -1.28766182453395       -1.29408340340968        0.00004621785341
H           -1.95981275913341       -2.14480717483610        0.00025522058176
H            2.87459888311138       -2.09743643151098        0.00020769263380
H            4.36031902157780        0.09096623205567       -0.00030464569717
H            2.78443217807307        2.21547244642090       -0.00063065512866
H           -2.04746140617322        2.06119624770662       -0.00033103991015
