22
 energy: -43.489295741907 gnorm: 0.000826939950 xtb: 6.6.1 (8d0f1dd)
N           -3.83629359076594       -2.94282354305050       -0.00042474734834
C           -2.97724891921787       -2.18651746403591       -0.00091235910375
C           -1.91130068308642       -1.24203078786700       -0.00025741521576
C           -2.31170574828567        0.09437999519186        0.00007316358172
C           -1.50716194362066        1.23266042272027        0.00053392957772
C           -2.21626436963321        2.46751463141979        0.00021615491854
N           -2.80233711387655        3.45086152145842        0.00113580781065
C           -0.11563031942925        1.32523779197664        0.00071234940681
C            0.61223471002830        2.51857954901378        0.00109333614045
C            1.96582528319488        2.22191337193705        0.00118280076714
C            2.13975527440778        0.82297815600281        0.00070781245328
C            3.40053162525466        0.20779209449754       -0.00004522904165
N            4.46525314976060       -0.21886980642830        0.00189274911121
C            0.87290615519925        0.21359530013284        0.00044351828422
C            0.60641352312623       -1.15344730817093       -0.00004933445531
C            1.70790785921677       -2.05777619361505        0.00111567335494
N            2.52792107620639       -2.85595326269884       -0.00183434009475
C           -0.63267481761550       -1.79917029013916       -0.00028745475767
H           -0.59424240023344       -2.88276245000174       -0.00055153069012
H            2.77121363797755        2.93348065268149        0.00138844255574
H            0.18384573507886        3.50326721957989        0.00125739485995
H           -3.38175189458674        0.26799231369506       -0.00008343811501
