23
 energy: -47.223419736078 gnorm: 0.000393205412 xtb: 6.6.1 (8d0f1dd)
N            4.77053817494576        1.80692902409003        0.00153517765004
C            3.72330874491903        1.34360335894351        0.00061548878152
C            2.42196761621679        0.77025180414369        0.00043654434413
C            2.38835668016498       -0.62098602644385        0.00025909977645
C            1.28092487924581       -1.46687167056212       -0.00015841370549
C            1.55486037409899       -2.86127772873075        0.00021471953083
N            1.81230473071934       -3.97675130304237       -0.00088799783935
C           -0.07189108588569       -1.11640959424965       -0.00049598956821
N           -1.02254810356770       -2.04757381886562       -0.00088657755279
C           -2.20465656277975       -1.41682024559800       -0.00101258150021
N           -3.35829804766193       -2.07535929653461       -0.00134741791482
H           -3.34363519012143       -3.08125881341436       -0.00155557453593
H           -4.23289045505770       -1.57802147762116       -0.00141616459542
C           -2.04157535931615        0.01168335758503       -0.00062292502131
C           -3.12339900703266        0.89451115954703       -0.00007721388011
N           -4.08307583709411        1.52544862863790       -0.00201608751869
C           -0.66845299129249        0.23878729011985       -0.00042932778099
C            0.00447016579256        1.47331160147425       -0.00003694385956
C           -0.79977635767365        2.64585068712454       -0.00007304492564
N           -1.40893753658642        3.61552140213781       -0.00015965309771
C            1.37093915893294        1.69940358866916        0.00031638261088
H            1.67386417942845        2.74102131558611        0.00054312871187
H            3.35388774690499       -1.11506918139634        0.00046029699042
