22
 energy: -41.900090715764 gnorm: 0.000570873935 xtb: 6.6.1 (8d0f1dd)
N            2.44585214304842        3.55506213471485       -0.02684213564174
C            2.06550977295855        2.47120097843250       -0.01857564875538
C            1.60689978885647        1.15016062979271       -0.00936028033179
C            2.40493077046170        0.00011198970819        0.00083850729949
C            1.60690968449807       -1.14996224208972        0.00908335794489
C            2.06553862633243       -2.47098734456901        0.01960777231253
N            2.44590542669783       -3.55491476640276        0.02912337270365
C            0.24919556823480       -0.75751653984408        0.00235303425544
N           -0.75112271938593       -1.58548245400810       -0.00233574706491
C           -2.05165760793924       -1.26468941752527       -0.01196360278268
N           -2.84533786712187       -2.35970677021530       -0.02157344888292
H           -2.39686787159709       -3.25852378057997       -0.03682417061177
H           -3.84514465238244       -2.29546229590974       -0.05178553498335
C           -2.65300605431470        0.00002266200356       -0.00540328410871
C           -2.05172308801554        1.26475626291010        0.00265745391527
N           -2.84547180730788        2.35973727733895        0.01035588198057
H           -2.39708528133803        3.25857478885834        0.02673763358160
H           -3.84534881684915        2.29544884536055        0.03806888551819
N           -0.75117768969870        1.58560059616319       -0.00375597555620
C            0.24917835853170        0.75767422797389       -0.00597716864719
H           -3.73704200451973        0.00000181612359       -0.00672749134803
H            3.48117162365032        0.00012246876347        0.00212277630311
