19
 energy: -38.730212407458 gnorm: 0.000702084347 xtb: 6.6.1 (8d0f1dd)
N           -4.02280255518852       -1.38097628484757       -0.72988188817151
C           -3.04987796472756       -0.82098578243613       -0.49203434155261
C           -1.86823644502428       -0.12009180872443       -0.21677116865151
C           -1.76469750343804        1.27656928161990       -0.05731799112305
C           -0.45130174890195        1.65275181301397        0.22630212201129
C            0.01629773697725        2.95683820175717        0.42960158326433
N            0.40008629497602        4.02504492039666        0.59905603342133
C            0.35305901440361        0.48748681044053        0.19206820426584
N            1.64370897793901        0.45551955528419        0.09839624782757
C            2.36420842285863       -0.67128712694210       -0.05873028599671
N            3.59705536752748       -0.48114443296019       -0.54245585916626
H            4.22541204866142       -1.26246128557834       -0.60953718615675
H            3.91166568688412        0.45512730795344       -0.72894971473701
N            2.06041079444450       -1.91328632651218        0.31080285025180
C            0.86796554208083       -2.40432748641103        0.53366277111657
N           -0.33125024053125       -1.94421630361584        0.22715242556476
C           -0.60494373256447       -0.68455522671128        0.01278761755156
H            0.86485951327721       -3.40400990538803        0.95749987058290
H           -2.59232663245239        1.95963457076039       -0.14426604740235
