19
 energy: -39.522113717754 gnorm: 0.000790637308 xtb: 6.6.1 (8d0f1dd)
N            0.27130278923964        4.44731893212791       -0.00025868859250
C            0.20136155247784        3.30521660282089        0.00080493264031
C            0.11471407363288        1.88226658468672        0.00010152150029
C           -1.18987649986481        1.38139983611704        0.00026816276353
C           -1.61597355811890        0.05771917516399        0.00023760859289
C           -3.02183227321089       -0.16091648731537        0.00056685249667
N           -4.15765479178866       -0.29880636746227        0.00056639802844
C           -0.81147310575007       -1.08287185668720        0.00007889740640
N           -1.27678736270745       -2.33138496707944        0.00009891995434
C           -0.18917339526509       -3.10356763562179       -0.00004523197734
N            0.98416811260357       -2.46919167448335       -0.00016670772540
C            0.67393150270637       -1.17340530332809       -0.00013745334252
C            1.61100432732198       -0.13896502106625       -0.00022532254933
C            2.97989413859965       -0.52675036674915        0.00040888460293
N            4.09053453022195       -0.80160770420433       -0.00162292829384
C            1.34882413837514        1.22667361573029       -0.00009591436083
H            2.22015009688427        1.87294853426718       -0.00005459968489
H           -0.25449578232058       -4.17525054134619       -0.00005650629890
H           -1.97625778163682        2.12871754442946        0.00050549563976
