21
 energy: -38.174499650320 gnorm: 0.000781337442 xtb: 6.6.1 (8d0f1dd)
N            3.92237904834798        2.20619618575024        0.00968033759010
C            2.93393359187492        1.62378315058190        0.00352539193890
C            1.71078747257667        0.91118703621737       -0.00062716636320
C            0.54791886653939        1.69555508052809       -0.00324934436949
C           -0.75477865473074        1.26238541257536       -0.00199523066115
C           -1.26711999637963       -0.13823076121016        0.00642294280731
C           -2.68837588332929        0.03269622311740        0.01083893957353
N           -3.03258832932605        1.32562666054676        0.00242525806548
C           -1.91050598857972        2.04934572450098       -0.00584528687859
H           -1.96257094229772        3.12225990719663       -0.01097131359888
N           -3.62680326784775       -0.93524713273004       -0.02741685079082
H           -4.58169355012712       -0.64546490928907        0.09495546818218
H           -3.38509557971353       -1.88457808065717        0.19369807590565
C           -0.56927284981273       -1.30305264529788        0.00557093891408
C            0.84012280932568       -1.46242262694448       -0.00177329624689
C            1.28981526779833       -2.80377174940654       -0.00547165732903
N            1.63417098386537       -3.89839468408566       -0.00696910101041
C            1.82527821430310       -0.48506570637700       -0.00363863588659
H            2.84500183448229       -0.85857217324992       -0.00713439955761
H           -1.13263053840023       -2.23079811059049        0.00660779883659
H            0.69912660913091        2.76967415042377       -0.00704604752128
