27
 energy: -48.521280972373 gnorm: 0.000882026986 xtb: 6.6.1 (8d0f1dd)
N           -4.34326002425458       -2.18927824372501       -0.17652206756435
C           -3.41429373403219       -1.51004486191700       -0.12829023573563
C           -2.29433588799207       -0.66745023223700       -0.07534717994986
C           -1.04075047515920       -1.27834742855939       -0.14866137860172
C            0.19822802360696       -0.69072502009014       -0.06490044546977
C            0.51295057334671        0.74571409667740        0.01114594957530
C            1.90378557379611        0.86007771402371        0.10037906080123
N            2.65402430741904        2.01959382287123        0.18843534244240
H            2.26762398918701        2.73113871354373        0.79297330224635
H            3.63182514193467        1.84145846884918        0.37797072769872
C            2.46926813301461       -0.44167832475871        0.05067207822359
C            3.83168259948097       -0.72180139673294        0.11107887329683
N            4.96169497457251       -0.93763948048060        0.16208552530813
C            1.43553231341252       -1.38582786819242       -0.06787922900927
N            1.61410628931945       -2.73650432229164       -0.07483613794639
H            2.54716022926408       -3.07315032373658       -0.24625333959337
H            0.86372494685513       -3.31659166364822       -0.40777755126252
C           -0.41341621094723        1.79071384056985       -0.13981795172308
N           -1.73646496923761        1.75534546212857       -0.01799330182933
C           -2.55211752898605        0.72895362811805        0.10572758359967
N           -3.82562701649647        1.08230785444899        0.38208091409547
H           -4.55665929698233        0.39337957447441        0.42248012877310
H           -4.04138901814915        2.05907542844707        0.46933915106932
N            0.05491404141844        3.04813738034425       -0.36872012572271
H            0.96773825767258        3.14923835708073       -0.78059922477984
H           -0.64541913290556        3.73578783253064       -0.59438740089435
H           -1.06856516156455       -2.35915237054070       -0.24282188064762
