27
 energy: -48.527196273235 gnorm: 0.000927564580 xtb: 6.6.1 (8d0f1dd)
N            5.00352446850975        1.46583068131844       -0.29246663108883
C            3.89877891120709        1.16079228505054       -0.18838873912487
C            2.57196493287200        0.74361356349573       -0.07988439511089
C            1.44054695839152        1.56193227360607        0.02813928990435
C            0.30100982972249        0.75684585123139        0.06426427825712
C            0.75287204028699       -0.62771110581151        0.01560805173323
C           -0.04117437516956       -1.77958378958635        0.18661757384594
N           -1.34847576635113       -1.90350352107795        0.01832862919593
C           -2.26274682002982       -0.97477917290954       -0.17392758905014
N           -3.46398365566958       -1.47750175826077       -0.54135342337933
H           -3.55813335162295       -2.47612414543227       -0.59434698294899
H           -4.27619081876732       -0.88982723912018       -0.60629396586289
C           -2.18498605964442        0.43352680113996        0.02921313367659
C           -3.41576283288139        1.10757757548947        0.04982995903999
N           -4.42947230242860        1.65623311893315        0.07012133828878
C           -1.02542073738146        1.22680345238116        0.17500567237728
N           -1.21456153903363        2.54651713758766        0.39526492310659
H           -2.14470720849117        2.92859324444881        0.40664899595487
H           -0.42865867904767        3.16632533386679        0.45316151764169
N            0.57393872263362       -2.95357031734726        0.47897256247110
H           -0.02982495668103       -3.72374377334979        0.71423061546422
H            1.49853092319674       -2.92426163174370        0.87735963999072
C            2.15501732493559       -0.60467827772875       -0.08221602657854
N            3.01362421350173       -1.69650640377197       -0.14475432960165
H            2.70751225320940       -2.43124319140922       -0.76916460031774
H            3.96907686194253       -1.41902783355405       -0.33335423959449
H            1.48669928869029        2.63601227455372        0.03906598080969
