25
 energy: -40.260379954666 gnorm: 0.000608841545 xtb: 6.6.1 (8d0f1dd)
N            3.95873320463780        1.65096434415940       -0.05857357600646
C            2.98163297235013        1.03973472986017       -0.03273351629159
C            1.79168896256260        0.29513177465674       -0.00926374735232
C            0.61623621513876        1.06043432944794       -0.00405647201230
C           -0.69025943371874        0.65679158674571        0.00250547980392
C           -1.20891649513358       -0.73321589311353        0.00411839477807
C           -0.47224617439092       -1.89441534099899        0.00876098726587
C            0.90395105178460       -2.07104918311383        0.01184996411253
C            1.92902404397024       -1.12212211806765        0.00313959586461
N            3.20080688713668       -1.59970562373681        0.01833110087713
H            3.98061667887282       -0.96694592068424       -0.02936226625800
H            3.37177694463068       -2.58737246282040       -0.02258354325957
H            1.24628262079936       -3.09967136752088        0.01933629089376
H           -1.04331735498213       -2.81732328110188        0.00418902129474
C           -2.61676523887819       -0.63184474636091        0.00615214458843
N           -3.51087713485145       -1.67840090796502       -0.06194137255699
H           -4.44874732381000       -1.45801648600386        0.23475909341733
H           -3.17688147009530       -2.56665188730649        0.27710869374499
C           -2.97424032461068        0.71972030269973       -0.00062067006163
C           -1.82486363794904        1.50716932369990       -0.00347154124096
N           -1.80880659270307        2.88103884435166        0.06541104236546
H           -2.65647925306718        3.33885562983233       -0.22987618075113
H           -0.96644996199813        3.33426429669549       -0.25075807178336
H           -3.98324779902342        1.09312735412279       -0.00296178940894
H            0.79318886132820        2.13217683752316       -0.00264234052350
