29
 energy: -58.355140637091 gnorm: 0.000904879797 xtb: 6.6.1 (8d0f1dd)
N           -5.04955403489876       -0.00447114780427        0.00834562256933
C           -3.89973209052465       -0.00355253229082        0.00559826497743
C           -2.48528858006549       -0.00223696500113        0.00319365687696
C           -1.90452232802402       -1.29179988565815        0.00150903348269
N           -2.75693212105805       -2.34176982314072        0.00160110364959
H           -3.75178678319417       -2.19480683298842        0.00341649706395
H           -2.40274505359102       -3.28343550349845        0.00084896369970
C           -0.51724082365823       -1.59964281086526       -0.00045347960729
C           -0.23173102883062       -2.98766029014048       -0.00549772405346
N           -0.09729403308845       -4.12815792159250       -0.01146073187476
C            0.57757209219859       -0.73860862142509        0.00114126264333
C            0.57629788813844        0.73957556916937        0.00113278080598
C            1.91785548669679        1.15288309782583        0.00150424121420
C            2.47359885827050        2.43489115225532        0.00326744572444
N            3.06803139586539        3.41888421199482        0.00531823719856
C            2.75141283675907        0.00234387686876        0.00175881647117
C            1.91983668304563       -1.14962102480706        0.00167891484212
C            2.47777732418740       -2.43071231672922        0.00371572758707
N            3.07381151976904       -3.41374552231909        0.00672739002509
N            4.08377700104397        0.00347180768482        0.00177385292013
H            4.58762541509235        0.87515109329161        0.00168583823380
H            4.58910497743652       -0.86735737566259        0.00177501890571
C           -0.52002846252794        1.59871488700490       -0.00040711244970
C           -0.23707401892585        2.98717340556317       -0.00614666740040
N           -0.10462429444984        4.12755926374762       -0.01398910994011
C           -1.90678264614400        1.28837483880169        0.00141018694620
N           -2.76104362458599        2.33683798111774        0.00108744184128
H           -3.75564586924335        2.18812694000275        0.00278322945147
H           -2.40849962029254        3.27912376699547        0.00004422339565
