22
 energy: -37.114851886287 gnorm: 0.000455442913 xtb: 6.6.1 (8d0f1dd)
N            4.65575432389537        0.02098458184632       -0.15531939876567
C            3.50702372040637        0.01090467529575       -0.11749974023388
C            2.10883230385202       -0.00175011546413       -0.06963736113153
C            1.28077774668115        1.13045454833215       -0.06662471322761
C           -0.04642655238226        0.70788053784597       -0.02682642642503
C           -0.03368456706623       -0.74816718396490        0.00333665229601
C            1.30574082444377       -1.14596338689896       -0.01205001756809
H            1.69297577464670       -2.14908111117099       -0.00848170524792
C           -1.14840980960015       -1.61345476605957        0.05407436783386
N           -0.92349005696272       -2.93849551816482        0.19316195317710
H           -1.69096617208708       -3.58561876116746        0.18890624035328
H            0.01198881497063       -3.29570746304744        0.24737074873425
C           -2.48683685341647       -1.20953059223529       -0.07109439216167
C           -3.00076231002685        0.06428758967824       -0.20101585491768
N           -2.46190561427633        1.26178144380256       -0.11683481862960
C           -1.17709162816030        1.56361911775079        0.02627668817092
N           -0.97417770666070        2.88506504637398        0.20782109763072
H           -1.78012632339685        3.48477504756168        0.21149414512521
H           -0.05490226132650        3.26868747073660        0.31938469178411
H           -4.07477314070432        0.12164371810994       -0.36502586154033
H           -3.21353313705071       -2.01314728699727       -0.09142263335855
H            1.64587556152145        2.14028234433680       -0.11675857269793
