25
 energy: -40.267046781691 gnorm: 0.000293729487 xtb: 6.6.1 (8d0f1dd)
N            4.43057137748072        0.76448793345491        0.01659197351062
C            3.28455779097981        0.65590485441597        0.02614559847766
C            1.90212630277623        0.47115771212836        0.02185973989575
C            0.92218714621891        1.47277624645202        0.06504793412385
C           -0.33574071968250        0.87705365594822        0.01201222100131
C           -0.12750651014377       -0.57176479231820       -0.03089870276109
C            1.26361518391080       -0.78030486904662       -0.04915648317068
N            1.94028607782623       -2.01766538293455       -0.10443709479836
H            2.93986563948338       -1.87322963134445        0.00017989178013
H            1.76731270048936       -2.50963664496751       -0.97571016976158
C           -1.08958893482971       -1.60055401234982        0.03747638441554
N           -0.63516472561067       -2.87752493866757        0.13591348435106
H           -1.29607460725799       -3.60221337147012        0.35823826348549
H            0.32903076104773       -3.00762489638910        0.40845537959395
C           -2.48140435579481       -1.43761744469638       -0.01845790622028
C           -3.22730016021404       -0.28226889324732       -0.10305540740080
C           -2.83799168987771        1.04421364070140       -0.09613012928081
C           -1.55604861155568        1.59246568642798       -0.01194571647330
N           -1.48921011169759        2.94987052777698        0.00379858043477
H           -2.33391629510904        3.48643010710527        0.08190997835133
H           -0.61529685342169        3.41250487587547        0.16628815273180
H           -3.64208843929105        1.76972247337553       -0.14333481594334
H           -4.29900671631318       -0.43711248745634       -0.15652258758543
H           -3.04578145898039       -2.36279609456281        0.01272817348039
H            1.15785816446593        2.52054987148877        0.11203052326201
