23
 energy: -40.836334860863 gnorm: 0.000512347848 xtb: 6.6.1 (8d0f1dd)
N           -3.67632322222740       -2.02709257243700       -0.04780290209445
C           -2.72429316665453       -1.37911149177428       -0.03490463172185
C           -1.57201778929922       -0.57676642023675       -0.01623824627261
C           -0.34656331802708       -1.24811142593686       -0.01960293926091
C            0.90494265710440       -0.69067549465623        0.01402310107830
C            1.27841903637629        0.72431276840381        0.02494865508881
C            2.66836356544352        0.71830112205869        0.06017444009553
N            3.18554440873292       -0.52171271331573        0.07759622759767
C            2.15971601399766       -1.37270747823365        0.04351446120750
N            2.36281713751879       -2.71675785928648       -0.01745653018881
H            3.29877817682017       -3.01646513060483        0.20052241223894
H            1.61789012523730       -3.32449013787246        0.27744020237873
H            3.34166904511216        1.55724548776075        0.08785004632460
C            0.40457980386723        1.82788057475529       -0.02310437117537
N           -0.92491216407492        1.84194183257964        0.00018176559849
C           -1.78321011492372        0.83777809916617        0.02568265070680
N           -3.06660648187983        1.25401446798637        0.09166894332405
H           -3.24361020761392        2.24250827274235        0.10608631564755
H           -3.82908168617606        0.59879505344056        0.09267466281708
N            0.93365535351171        3.06638272104411       -0.08928400815527
H            1.92553261741461        3.20651334265405       -0.12106912347660
H            0.30609625480962        3.84956142278179       -0.12247541040923
H           -0.41170697156874       -2.33108309401841       -0.04538508474980
