22
 energy: -37.105794071879 gnorm: 0.000962519903 xtb: 6.6.1 (8d0f1dd)
N           -4.36651027266823       -0.81721894145556        0.12813381173629
C           -3.23536948996723       -0.61224280065966        0.08197312281531
C           -1.86835377830302       -0.33468427587670        0.04256228323331
C           -0.82485654798153       -1.28905058954194        0.05184286251233
C            0.39003455558467       -0.63054403443010        0.03008120705901
C            0.10303806868373        0.81661669600608        0.00037566674420
C           -1.31081704436386        0.95193729180334        0.00319954911441
N           -2.02298447354745        2.11667581776827       -0.08649048424947
H           -1.56611130337551        2.96913372383350        0.18808815859596
H           -3.00311287960969        2.05811235648213        0.13876219308732
C            1.00615769695576        1.85447592230532       -0.03354449024906
C            2.39455778162334        1.77266759179437        0.00785704743021
C            3.16994250156814        0.62410304589290        0.08781314602067
N            2.87672092868099       -0.65712709024383        0.06441318112808
C            1.67300837066123       -1.22676913344034       -0.00247685324599
N            1.75398868317467       -2.57122501272988       -0.08095480144738
H            0.93901914691312       -3.14505965306778       -0.18565920097272
H            2.67071010022635       -2.98091762457783       -0.12098056071678
H            4.24353966486450        0.78467971960251        0.16816136262141
H            2.93728011646553        2.70818201741074       -0.00214227447604
H            0.59284550137159        2.85637629636803       -0.08257271856362
H           -1.00036209275716       -2.34903174474354        0.08709844052241
