26
 energy: -44.793706555423 gnorm: 0.000694693162 xtb: 6.6.1 (8d0f1dd)
N            5.22390323436554        0.14262403282467       -0.00311200289808
C            4.09649151511396       -0.08477176960246        0.02136246761468
C            2.71710286803982       -0.30131129562167        0.03244650448559
C            2.05451492869846       -1.52887817402771        0.11232940087342
C            0.67870340145744       -1.29907100973411        0.05746955853717
C           -0.27123760124877       -2.31456143807592        0.05448457341088
C           -1.63641698029541       -2.22471255149196       -0.03369215903719
C           -2.45027905786917       -1.07800705146603       -0.07368721566285
N           -3.78341152528080       -1.30813806384410       -0.17599816413179
H           -4.44061203959886       -0.54759471539450       -0.15786492791523
H           -4.13332541601374       -2.24851786652900       -0.16916796592880
C           -2.04388657317025        0.27444157846076        0.01012360017625
C           -3.09880116397820        1.20432086367762        0.06879101107099
N           -3.96339465763873        1.96430583102488        0.12583893887676
C           -0.74183609845670        0.84511760719147        0.05480446638009
N           -0.67563278917636        2.19316233486946        0.16013554180326
H           -1.51875122295809        2.71720123356517        0.32791131338136
H            0.20926611800121        2.60055410598323        0.42272037143094
C            0.47469430575390        0.14722843796052       -0.02132749478525
C            1.75420274819908        0.73065400271671       -0.06633981825631
N            2.06776216260686        2.09141024761407       -0.16544224542790
H            1.67097521669908        2.53882857581178       -0.98419563488571
H            3.07149430258693        2.23693431923077       -0.14326014542911
H           -2.18085924131937       -3.16079021243337       -0.06313376300531
H            0.13640083756167       -3.31744490136159        0.10731229548111
H            2.52918983212073       -2.48957574764865        0.18424798534091
