23
 energy: -41.643204667902 gnorm: 0.000525849218 xtb: 6.6.1 (8d0f1dd)
N           -5.27495285272448       -0.96125557467005       -0.18107916583008
C           -4.14731113568451       -0.74910010959668       -0.12998380598372
C           -2.77496743778920       -0.47502748153931       -0.06802341100691
C           -1.74951247831509       -1.41635236401239        0.00240046211221
C           -0.52497142871509       -0.73236741079875        0.03245344868139
C           -0.82676886513855        0.69406513135124       -0.00358714499057
C           -2.20997842239123        0.81726981809145       -0.06179922794687
H           -2.78886693006315        1.72194829171009       -0.11291422792804
C            0.11631545389712        1.74912115449065        0.06241993486554
N            1.43915939777279        1.68844290438902       -0.01879385456602
C            2.25073596018073        0.65325658555471       -0.06752239263215
N            3.54351110849724        0.99438300364745       -0.24515389704219
H            3.77178004281013        1.96934425261838       -0.32646359776524
H            4.26940899668536        0.29905247997091       -0.26867964292215
C            1.96571348431654       -0.74810130920920        0.07151082823718
C            3.08221063400194       -1.60529836487071        0.14029657538139
N            4.00199522398896       -2.29233416531063        0.19869868480666
C            0.71720268053538       -1.34484637064044        0.10683948415886
H            0.71050205625065       -2.42712009998067        0.17915940051220
N           -0.33865894024337        3.01010485666097        0.19103401141841
H            0.33093160797196        3.75778036297914        0.23188432098539
H           -1.31849207536695        3.20639059626570        0.27400717816602
H           -1.87265995047712       -2.48302788800095        0.01885506288868
