23
 energy: -41.631512754091 gnorm: 0.000543655292 xtb: 6.6.1 (8d0f1dd)
N           -4.32432178195882       -1.96333548629578       -0.03052587571900
C           -3.35838366588517       -1.33873489158309       -0.02203632355111
C           -2.18950616922773       -0.55391036505733       -0.01073062905417
C           -0.98197128322196       -1.24335716423633       -0.01583847805236
C            0.29618674695732       -0.71850668723673       -0.00314553029812
C            1.48123474225745       -1.44936257497644       -0.00490209446326
C            2.56493822764519       -0.55950148869148        0.00996745496029
C            3.92170559736601       -0.89498726763147        0.03038523616321
N            5.04654978525392       -1.13038242022193        0.05913490301578
C            2.07766248630110        0.76909199219442        0.02040045675479
N            2.85851772064617        1.87762210445241       -0.01768501812793
H            3.84461299869940        1.76531164183255        0.14878882155185
H            2.45470262683030        2.77215150979434        0.19720168774351
C            0.66185064254489        0.71288841853901        0.01159405670697
C           -0.19460707050528        1.79074578339493        0.01475845216875
N           -1.51188382553875        1.86340977904904        0.01699783644113
C           -2.38943359462349        0.86880011234976        0.00864957206666
N           -3.66377213302245        1.30287860523890        0.02118614455233
H           -4.43961699299349        0.66257431393218        0.01259357798128
H           -3.82009302460369        2.29611372702832        0.03082019765130
H            0.25617531265830        2.78212611864322        0.01569153593607
H            1.56151407608103       -2.52044120323107       -0.01357115791303
H           -1.05670603556024       -2.32543871568763       -0.02977472741473
