24
 energy: -41.344934142947 gnorm: 0.000920459017 xtb: 6.6.1 (8d0f1dd)
N           -4.32321885947047       -1.74143448980805        0.12118204103826
C           -3.25870509348882       -1.31386608164887        0.07920104748238
C           -1.94418031489031       -0.79506661891253        0.03020587522609
C           -0.90878837401183       -1.73818452831071       -0.04327919197115
C            0.44442226971437       -1.51466478912235       -0.04542295753339
C            1.40612068290349       -2.54663367602141       -0.08511943365287
C            2.66343079403161       -1.99511485371354        0.00294844994267
C            2.55065577756090       -0.59440058245686        0.08926642593354
N            3.63724767901875        0.27717657725018        0.20383107388437
H            4.51394312222761       -0.22792287358415        0.24820905805523
H            3.56347534130086        0.92166711668602        0.98227034464761
C            1.19036581381428       -0.24336143862280        0.02381285740127
C            0.67810071799920        1.05518633100609       -0.07765292177931
N            1.55161177147264        2.07869568994367       -0.20655572932053
H            2.50276468458374        1.86373633535301       -0.46198300357894
H            1.19906618856682        3.00718556222476       -0.37481010283529
C           -0.70966883096091        1.40399107488307       -0.03214449826039
C           -0.99173747742924        2.78720910201001       -0.07952932888990
N           -1.21236173679028        3.91449385168509       -0.12341516132530
C           -1.83405899335906        0.59378971241112        0.04072848870748
H           -2.77723195150169        1.13038100651435        0.08192947903100
H            3.59473607012022       -2.53340816965565        0.01587468479505
H            1.17451968255807       -3.59330296937828       -0.14784572907333
H           -1.22086669036910       -2.77605494113208       -0.08483682932424
