21
 energy: -37.384412770210 gnorm: 0.000601664545 xtb: 6.6.1 (8d0f1dd)
N           -3.45129868252962       -1.22425040810464        0.00028104150571
C           -2.34972199560608       -0.90020075105166       -0.00812914412603
C           -0.97447743032440       -0.57154593495626       -0.00939962570229
C           -0.67683029384753        0.78525763447446       -0.00585862809905
N           -1.59811662906497        1.75301111448589       -0.00883085245900
C           -0.88881907542018        2.88757282453110       -0.00170969140580
N            0.43083852975228        2.77270769889289        0.00595000849856
C            0.65450617404905        1.44145119601399        0.00525886178392
C            1.90140700881562        0.87952394775931        0.01569823990029
C            2.22315310268782       -0.48981347264422        0.01270161608099
N            3.55480734042907       -0.78748952349992        0.06599855626479
H            3.86502819183764       -1.73080162694159       -0.08344894421501
H            4.22485746590112       -0.05194088470578       -0.06963649374209
C            1.33969931544331       -1.56817338431483        0.00078814144980
C           -0.05431472736035       -1.64994772875321       -0.00794419722416
N           -0.58857366313150       -2.90163543890679       -0.04909195372063
H           -0.00109610787838       -3.70745969931403        0.06361093569093
H           -1.58410675317301       -3.01998457492450        0.02904792551533
H            1.82892309375469       -2.53801563872434       -0.00022059498747
H            2.72838275918361        1.57833381704098        0.02791877392039
H           -1.37402076981814        3.84692765534304       -0.00353153732896
