22
 energy: -37.908683447446 gnorm: 0.000548897697 xtb: 6.6.1 (8d0f1dd)
N           -3.58982575414570       -2.51777202837159        0.00281257392221
C           -2.63434370761766       -1.88302310012790        0.00252982311322
C           -1.45003933076584       -1.10660764628986        0.00091007065335
C           -0.24659804997056       -1.81728477791754        0.00124521972326
C            1.03570281296986       -1.31839355204008        0.00039334587642
C            2.18875843485803       -2.12988875971224        0.00093231199551
C            3.30512331179008       -1.31977303859194       -0.00009116661555
C            2.89869531187854        0.01878348206641       -0.00132365205980
C            1.50403389749145        0.07750484140239       -0.00111144224637
C            0.73222737902397        1.25073915797663       -0.00209232747365
N            1.37092561233227        2.43846643959583       -0.00341705426381
H            0.85029060927482        3.29952132440532       -0.00414168908068
H            2.37330734176166        2.47412373239710       -0.00379760778329
C           -0.69503113489701        1.30112630479807       -0.00170819176495
C           -1.26074617934127        2.59852162145113       -0.00215505759491
N           -1.70771674602422        3.65670966384113       -0.00432551592798
C           -1.62974959819725        0.27677426964015       -0.00039417615981
H           -2.66439689615027        0.60638553029787       -0.00031207066048
H            3.58223352401030        0.84911563525284       -0.00224979959497
H            4.32707553130004       -1.65289230295878        0.00006078048895
H            2.17908470833331       -3.20369991540607        0.00200467311665
H           -0.33715621611453       -2.89817983590886        0.00235714323666
