22
 energy: -37.105844926379 gnorm: 0.000517668777 xtb: 6.6.1 (8d0f1dd)
N           -4.42722685795679       -0.43570926796730       -0.09252254235367
C           -3.27929470199455       -0.48650283542002       -0.04116098938711
C           -1.88283395922519       -0.49168933819317       -0.00509906674134
C           -1.04781467644967       -1.60229712398493        0.11789921961849
C            0.28151432351944       -1.17050402113493        0.06540833339280
C            1.39326677427523       -1.99412613179983        0.13619938013065
C            2.72137295618598       -1.62999604814732       -0.01571383786011
C            3.21816466595310       -0.34691376949591       -0.23985216505876
N            2.66166100807617        0.83449196296113       -0.14525184892821
C            1.38057740700848        1.14145338567806        0.05617737676064
N            1.18499401206223        2.45688221212141        0.30981126545587
H            2.00941796588006        3.00945095740441        0.47772415189002
H            0.30220490826363        2.75927486892719        0.68691538417342
C            0.25642119364176        0.29744059307871       -0.04844379545436
C           -1.08523541168189        0.68118187225025       -0.10486635903896
N           -1.59404785039461        1.97165267208358       -0.20025914626147
H           -2.59706008224281        1.98107873311622       -0.33792345242441
H           -1.12023201586331        2.55886058810670       -0.87342506870928
H            4.27630532087695       -0.27962972787026       -0.48460297734317
H            3.45432860973557       -2.42538170165723       -0.00685648606061
H            1.18709887720918       -3.04997013800375        0.27090090651341
H           -1.37391982107898       -2.62168233865282        0.20699902258601
