23
 energy: -41.637917409605 gnorm: 0.000606095290 xtb: 6.6.1 (8d0f1dd)
N           -5.36460315222884       -0.52757585744620       -0.07580627215419
C           -4.23968495904124       -0.29811766510778       -0.05232887979487
C           -2.86447273067283       -0.03075057818691       -0.02434016362851
C           -2.27016665538852        1.22785712138710        0.01515107339242
C           -0.87673516701719        1.05718840731694        0.02625476066524
C            0.03370473708028        2.10510251585636        0.07029388375925
N            1.34102782361314        2.11304645487129        0.04068177532438
C            2.16182106103511        1.06492847686659       -0.01240425181136
N            3.45429117586828        1.44493473186265       -0.08721381682869
H            4.20612322432388        0.77838773776915       -0.11739423386953
H            3.64531557701731        2.43161980063994       -0.08907186259241
C            1.89224886002953       -0.33255490819939        0.01606606424942
C            3.03490227347238       -1.15521885508339        0.02379469338176
N            3.97190436462683       -1.82438741636983        0.03402952295399
C            0.64982733982213       -1.00730863248916        0.02149207409871
N            0.68285258180559       -2.35419049875984        0.04177347076838
H           -0.17086885814583       -2.88077433435584        0.04311929271340
H            1.56078623456166       -2.84542330702321        0.05340507622649
C           -0.61596598053221       -0.37763152883616       -0.00138281431595
C           -1.85249699317364       -1.01337825711290       -0.02979661044590
H           -2.05429202676382       -2.06941275330078       -0.05744919809718
H           -0.38960216795908        3.10544354230319        0.12627783506194
H           -2.78619209273294        2.16938022189818        0.02893584084319
