19
 energy: -29.945175881208 gnorm: 0.000749550198 xtb: 6.6.1 (8d0f1dd)
N           -4.45990452967435        0.00207322557559       -0.00027863353954
C           -3.31169575624844        0.00150442892876       -0.00036460273987
C           -1.90906032465549        0.00089263951722       -0.00018899009172
C           -1.09956714297181       -1.14462774479940       -0.00018191168774
C            0.23430445711773       -0.74234406870717       -0.00002739123228
C            0.23489947126079        0.74241156609325        0.00007102421035
C           -1.09864660061277        1.14576478603409       -0.00002997196826
H           -1.45355391608671        2.15947413539640       -0.00000507016248
C            1.33122597359265        1.58858090469314        0.00023161362504
C            2.67697124364093        1.25752965165769        0.00034685900409
C            3.26392882788900       -0.00117532807897        0.00032537328139
C            2.67596541310565       -1.25940994639651        0.00018042124269
C            1.32995496818783       -1.58938763988236        0.00002123739225
H            1.09607098659767       -2.64846037965085       -0.00007689139312
H            3.36413627237827       -2.09561331626989        0.00019399156391
H            4.34783913414537       -0.00160794958723        0.00043775128567
H            3.36580953924724        2.09318318831218        0.00047092249252
H            1.09818477892133        2.64783927269837        0.00027376613413
H           -1.45528125443491       -2.15805480223433       -0.00029149131704
