23
 energy: -41.626169187168 gnorm: 0.000662063744 xtb: 6.6.1 (8d0f1dd)
N           -3.46916839895290       -2.62513310181960        0.00700548413316
C           -2.54446246075275       -1.94159079234580        0.00543953884900
C           -1.41072596585735       -1.10118077277802        0.00157804862001
C           -0.18710438033279       -1.76943298079223        0.00238990109917
C            1.08171753356014       -1.23845482679710       -0.00529572192661
C            1.47734384119947        0.18094117734396       -0.01841243370682
C            0.67617295558706        1.28609182244259       -0.01958255117570
C           -0.72639052520481        1.35011427518659       -0.01049203378985
C           -1.24846176388748        2.65994972073032       -0.01277779349101
N           -1.66500978807432        3.73194588350040       -0.01579588840924
C           -1.67951731877777        0.30040198618996       -0.00098407423200
N           -2.97799293155497        0.66080135175416        0.00473121255229
H           -3.70067458604532       -0.04022356718488        0.01212898559489
H           -3.23514521263283        1.63429502635290        0.00486601764061
H            1.16651080425550        2.25470912586672       -0.02410238481230
C            2.90346880816518        0.13131350159922       -0.02634452155965
N            3.35698016601777       -1.13130272699500       -0.01669608951234
C            2.29551046134542       -1.93808168646121       -0.00349520576366
H            2.42776872576359       -3.00439735774472        0.00332573938751
N            3.76270076469739        1.17372329484993        0.01039720011462
H            4.73403227720708        0.95800304552389       -0.13521012404329
H            3.44292503434681        2.09325426562079       -0.23724781722376
H           -0.25096586337208       -2.85247168974306        0.00985918765521
