24
 energy: -40.542740212458 gnorm: 0.000589732557 xtb: 6.6.1 (8d0f1dd)
N           -0.02636273531341       -3.69190915290916        0.02573152897186
C            0.18039699332668       -2.55997318218382        0.03397225435130
C            0.45813245579876       -1.17820053813258        0.02847413035596
C           -0.65064183336267       -0.33081377828970        0.02495704267446
C           -0.63859023922735        1.17819207984441        0.00182616033459
N            0.37113063718251        2.01802690296728       -0.00995091131615
C            1.66184382553995        1.72444097722462       -0.02079671232935
N            2.45148464042039        2.84654332335217       -0.10411202042153
H            3.41193421229470        2.79529197967395        0.18698655281962
H            1.97032671132434        3.71610428655557        0.05228643128393
C            2.32637468494542        0.48904504964601       -0.01295651225503
C            1.82834679682792       -0.80655486979805        0.01345881581142
N            2.74522218175434       -1.82452617162300        0.08139010851516
H            2.42990827760044       -2.76702407236295       -0.07546865568644
H            3.70464160667053       -1.62204642360765       -0.13766892454052
H            3.40913708152323        0.56040003803004       -0.02875399974851
C           -1.96251866960866        1.58297670715636        0.00639275928132
C           -2.78380895069241        0.44199602230467        0.03014252194881
N           -4.13324115231619        0.44620480143434        0.00811918485353
H           -4.63457440425150       -0.41348281783481        0.14454671838844
H           -4.62976697044127        1.31202422194699        0.11891159466880
C           -1.97765113683868       -0.71456107269245        0.04127799408385
H           -2.34289790637746       -1.72504016535443        0.06088717389024
H           -2.29982325927952        2.60079494395218       -0.00840637933572
