19
 energy: -33.938411290642 gnorm: 0.000422994544 xtb: 6.6.1 (8d0f1dd)
N           -3.53945256606816       -1.71019592956906       -0.00079980695478
C           -2.53112812291133       -1.15858331965094       -0.00144923030909
C           -1.30722476998283       -0.45658558583826       -0.00062047732074
C           -0.15434231066094       -1.22954816407443       -0.00106926216142
C            1.15079042040404       -0.77485600337257       -0.00084213190690
C            1.60843772488237        0.62114106810357       -0.00008272524306
C            3.00967171956499        0.51997566052519       -0.00017665279733
N            3.42049616419353       -0.74645328177340       -0.00087056541868
C            2.33412509428773       -1.52400158363692       -0.00127936133599
H            2.42680076462828       -2.59461167602564       -0.00185592106621
H            3.71842586764798        1.32764885216290        0.00024580050863
C            0.83609874827838        1.76766683168964        0.00058243454314
N           -0.46952738903900        1.91641905402954        0.00068613590971
C           -1.41110729001017        0.97814314151120        0.00015964527685
N           -2.65137334379593        1.49771181729160        0.00040019254432
H           -3.47125746310358        0.91431850412280        0.00007979631669
H           -2.73715651236372        2.49997114486829        0.00093773009582
H            1.36527496467122        2.71796200583595        0.00110185247393
H           -0.29762629052289       -2.30476790739945       -0.00172007345490
