24
 energy: -46.154714843099 gnorm: 0.000744143733 xtb: 6.6.1 (8d0f1dd)
N           -4.50393167596360       -0.68585059674057        0.00120900982980
C           -3.44901131361793       -0.23753670950606       -0.00016002508240
C           -2.16996689213982        0.37253279977896       -0.00011616840869
C           -2.15532787891002        1.77586718622284       -0.00157546596913
C           -1.09646994840701        2.64436879076653       -0.00222270155557
C            0.29658407753367        2.41182427135555       -0.00164938394822
N            1.08294815684603        3.51609025128468       -0.00279135085347
H            2.08504798403157        3.43130047421650       -0.00220525648413
H            0.67345740145799        4.43233354261279       -0.00347610465098
C            0.93978186207918        1.15415722367791       -0.00017745505482
C            2.35483250248078        1.19901337761381        0.00034445044094
N            3.49764079309501        1.31302145201248        0.00030268610330
C            0.36020470513407       -0.11982355034115        0.00091399006787
C           -1.07540947511612       -0.48453413590221        0.00096379788384
N           -1.22721635110262       -1.81073230604421        0.00225885683065
C           -0.00299735518472       -2.35027200399750        0.00301874427145
N            0.19012445840484       -3.66871004715243        0.00435385664194
H            1.12138053400237       -4.04746075556766        0.00482682286202
H           -0.61005529688810       -4.27680655426417        0.00479174621241
C            1.02320417614064       -1.34890249127720        0.00221612702176
C            2.37951658035052       -1.66869136478816        0.00266346128766
N            3.46392108313334       -2.05123747549489        0.00329760824314
H           -1.36043947897158        3.69582113525438       -0.00338141220329
H           -3.13784586588848        2.23322889337976       -0.00223257068608
