22
 energy: -37.095467304699 gnorm: 0.000993733106 xtb: 6.6.1 (8d0f1dd)
N           -3.50348466096343       -1.10822430124057       -0.02361743053833
C           -2.38479250310880       -0.84535631122404       -0.02886502566711
C           -1.00177833750696       -0.55282779393362       -0.02113991416741
C           -0.66163778344331        0.79312760717309       -0.01291389431780
C            0.73627449076118        1.37823079706776        0.01609581826292
N            1.89902126396848        0.78196536441037        0.02343074265232
C            2.14307562139784       -0.52175908034441        0.02015870036706
N            3.48326217117780       -0.80140971686214        0.08784784129505
H            4.09575568284022       -0.01571231834440       -0.04927636557084
H            3.82087678339889       -1.70796286413532       -0.18158558577199
C            1.26537229182723       -1.61678135495962        0.01079868499613
C           -0.12186286913076       -1.67156985459877       -0.00913407394492
N           -0.69809612529465       -2.91174558813496       -0.07037133264529
H           -1.69025871201325       -2.99736366038153        0.07050413984306
H           -0.13373187921041       -3.72062318139807        0.11803046991550
H            1.75680153898951       -2.58437136461317        0.02001858975600
C            0.57639170905861        2.76224784578866        0.02459421808057
C           -0.78464876956420        3.05265926496392        0.00207297740603
C           -1.53398632654666        1.87551568622883       -0.02101020652683
H           -2.60627502838470        1.81113496829569       -0.04231084359021
H           -1.20335265031299        4.04431852062912        0.00269592168109
H            1.38045476796038        3.47119453811331        0.04560938168507
