25
 energy: -45.871972284586 gnorm: 0.000980921143 xtb: 6.6.1 (8d0f1dd)
N           -2.92612609239933       -2.74035464402959       -0.01111933468200
C           -1.93514768651712       -2.16360483305015       -0.00715046612865
C           -0.65884078065658       -1.54576309151265       -0.00038357077087
C            0.40898839737121       -2.45597797308184        0.00143063326775
C            1.76364771600358       -2.23443058661313        0.00656828844817
C            2.49808314846746       -1.03485413572787        0.00995519763661
N            3.85278199193981       -1.15727631475283        0.04314661965178
H            4.43860744086893       -0.34337908430569       -0.02710588729403
H            4.27772755994755       -2.06252810321249       -0.04143034423417
C            1.96224448585641        0.27186951059253        0.00416309000206
C            2.90953906366930        1.32220305337894       -0.00834349816481
N            3.69903070100088        2.15678168606923       -0.02510893011235
C            0.62320336690660        0.68611809862835        0.00449787041027
C            0.21396305276359        2.01307043362750        0.00359875709426
C           -1.18641827976503        2.06324685131798        0.00259550177006
N           -1.95557336762245        3.16048107666014        0.00269079875230
H           -2.95719918126243        3.06870498537654        0.00297055146126
H           -1.54231345352813        4.07552017965165        0.00476954151591
C           -1.68643962289624        0.72555434365394        0.00126522454169
C           -3.05553006761153        0.45577787650048       -0.00152514599730
N           -4.20205454802811        0.36550648202247       -0.00425380680803
C           -0.59791044207474       -0.15408358927436        0.00262246611246
H            0.86300523474510        2.86846180814785        0.00479345035478
H            2.37861842057276       -3.12707112762235        0.00930281822757
H            0.10711842134848       -3.49686851204459       -0.00186664135464
