24
 energy: -40.548548836222 gnorm: 0.000971722678 xtb: 6.6.1 (8d0f1dd)
N           -4.50638172539166       -0.17138567974041        0.05875503098347
C           -3.36025107335918       -0.27409098977046        0.03565344320391
C           -1.95640011123091       -0.38494257025248        0.00955425937860
C           -1.47286390563861       -1.70155316580941        0.01122298125279
C           -0.19947563258221       -2.20070109330638       -0.03016947478661
C            1.03282010565600       -1.51146811322170       -0.03780004592467
N            2.15619736331973       -2.26447896291520       -0.09283749102167
H            2.07411491114667       -3.24418502731136       -0.30599835503023
H            3.02183017403548       -1.79052590270671       -0.31180134057919
C            1.18029130679007       -0.12143955645356        0.03476162349434
C            0.17143791691957        0.93180895721068       -0.02763038100612
C            0.91067264143679        2.11831386216120       -0.06449595312082
N            2.22807154835014        1.90465247557973       -0.00267045763474
C            2.40450169258675        0.58422719297562        0.06775661786535
N            3.69488963255317        0.03657377763675        0.13529494187195
H            4.36792180308655        0.78742338897771        0.01861445363273
H            3.86699697047406       -0.42784696377280        1.02200400795730
H            0.55524980703920        3.13182952494227       -0.12340986001979
C           -1.23190602966499        0.83143296210858       -0.03754476739650
N           -1.95134882663217        1.97218630664239       -0.08813393142016
H           -2.95670457119574        1.93618662242557       -0.08060880372856
H           -1.49025069721566        2.86166543906255       -0.10040063909160
H           -0.11458042585204       -3.28075336242353       -0.05980650536242
H           -2.26003313513048       -2.44835944093877        0.02932106048323
