23
 energy: -36.822346124091 gnorm: 0.000616204891 xtb: 6.6.1 (8d0f1dd)
N           -4.62235498089160       -0.48268269963986        0.08374505344739
C           -3.49599089552481       -0.25732513409675        0.05768753880522
C           -2.11300756334368        0.02248932100185        0.02823728089579
C           -1.25765681733121       -1.07701605639301       -0.04524231090995
C            0.11961631863800       -1.09035860392005       -0.04365949412447
C            0.89149134156787       -2.26330662760042       -0.10032726952875
C            2.22884560609857       -1.92784431278988       -0.02341336441894
C            2.35050730459608       -0.53412050294673        0.07349313635613
N            3.57129105234702        0.16059185473702        0.17479044735605
H            3.63060044138711        0.72030919892769        1.01914787475648
H            4.35200465682985       -0.48555207393213        0.14374464139747
C            1.06694285935638        0.03790346516890        0.03350008904750
C            0.76489570364906        1.40311121639754       -0.03296620654335
N            1.79885801483409        2.27929551148537       -0.11299602430431
H            1.60058974425163        3.24274526272024       -0.32338094216944
H            2.70214949134981        1.91094516945229       -0.37134551081916
C           -0.52971072533911        1.97518735155594        0.00495152186800
C           -1.76271459828621        1.38394846180174        0.05435380241814
H           -2.60752935581302        2.06336413260306        0.09353781570586
H           -0.53208573774571        3.05981094145550       -0.01129207225811
H            3.05642069112113       -2.61606829214621       -0.03049175586294
H            0.49091364383799       -3.25751393378484       -0.17046611369677
H           -1.73884934048902       -2.04826858185746       -0.09501673351869
