21
 energy: -33.387929624051 gnorm: 0.000206259886 xtb: 6.6.1 (8d0f1dd)
N            4.29251163223235        0.52196779048262        0.00261436827773
C            3.16890558315970        0.28584384176299        0.00209428050046
C            1.78607350112816       -0.00772536809946        0.00139724028214
C            0.92149142002041        1.08344413895674       -0.00000802371322
C           -0.45860550118389        1.08086809747705       -0.00036395536609
C           -1.24380994902160        2.24703432863814       -0.00101119425504
C           -2.57840189177283        1.88737466595673       -0.00049327723345
C           -2.67658901383870        0.49437160777623        0.00010540012577
C           -1.39327059882961       -0.05616667051737        0.00017997660061
C           -1.07427281562276       -1.42339341623998       -0.00000507058039
N           -2.09207001321736       -2.31663887907620        0.00144068542616
H           -1.90651571400265       -3.30307820013952       -0.00789591979568
H           -3.04425756206056       -2.00343445796955       -0.00856510041161
C            0.22469727483793       -1.97874369973094        0.00117685159189
C            1.45274749250499       -1.37313300380356        0.00212904559043
H            2.30559648823783       -2.04326848164039        0.00322272881619
H            0.24209802337010       -3.06334625207881        0.00152877223358
H           -3.61010281429402       -0.04056155472572        0.00105126519001
H           -3.41343643680051        2.56511963201408       -0.00050538861691
H           -0.85403433812979        3.24806633221849       -0.00164048594911
H            1.39212437878282        2.06114193893844       -0.00062686201343
