24
 energy: -41.349336339808 gnorm: 0.000779549499 xtb: 6.6.1 (8d0f1dd)
N           -4.36485180496113       -2.10841128526198       -0.04373492525424
C           -3.48186386675984       -1.37381844594273       -0.02990775788247
C           -2.38969518230458       -0.47942157182753       -0.01708202161246
C           -2.71116888136717        0.88783953259352       -0.01099525734462
C           -1.89210844451458        1.98494516316922       -0.00219170687069
C           -0.48102449660280        2.07659495436710        0.00047846186375
N            0.01976827757234        3.33201576989225        0.00519879101224
H           -0.59645405097033        4.12453636966415        0.03123177849953
H            1.01004470645003        3.49026730378619        0.02909933271241
C            0.42661453939994        1.00260543969406       -0.00739943193203
C            1.81085103894769        1.10911776506826       -0.00748591381409
C            2.37800428722555       -0.17984709096017       -0.01095128468736
C            3.74219812629201       -0.47810589997992       -0.02994806119140
N            4.86027296314613       -0.74580416938779       -0.05918893548841
C            1.34616231623113       -1.13433986852115       -0.01293285526464
N            1.53360574779903       -2.48438813910140        0.04922544534155
H            2.46167866258983       -2.82090486236784       -0.14900233764826
H            0.77865755137158       -3.08766280008583       -0.22860827455300
C            0.10663891651526       -0.44093443306556       -0.01014317431216
C           -1.12012259115922       -1.06112608876307       -0.01267018407269
H           -1.11550646683400       -2.14636014006553       -0.00760981706639
H            2.40391551883063        2.00581267102192       -0.00888448636305
H           -2.39776364218536        2.94401788719418        0.00301926003129
H           -3.77514625591214        1.09738295228025       -0.01274728500283
