22
 energy: -37.108131255813 gnorm: 0.000679599610 xtb: 6.6.1 (8d0f1dd)
N            1.40427174740269        3.50459545804742       -0.02296560841513
C            0.78104024531019        2.54152523487245       -0.01157483772032
C           -0.04194259284551        1.38993590128988        0.00365491932532
C            0.60697136143527        0.15852266111611        0.00308038277769
N            1.93336410502759        0.05218186589000       -0.00753873963611
C            2.21570406416156       -1.26819682397312        0.00403189538556
N            3.49581897281331       -1.68433628009894       -0.04114997191673
H            4.21057409017594       -0.98592223887367        0.06547664028627
H            3.71884781539347       -2.64465866527795        0.14805543786232
C            1.05694342232583       -2.06471503122570        0.02118136973191
C           -0.02008385050376       -1.18827520570672        0.02051915879099
C           -1.36791911876560       -1.51453455471848        0.02593313177795
C           -2.47482551596285       -0.67340258212102        0.02732276693198
N           -3.71163056626997       -1.27056672848183        0.09016297559169
H           -3.77635254433829       -2.25289658001088       -0.11322741114782
H           -4.52195652491784       -0.71787423829834       -0.12948710214200
C           -2.47013006431096        0.73758734082714        0.02687989689184
C           -1.42521461938680        1.62526838875686        0.01884034248642
H           -1.70042197069534        2.67396359536217        0.01942347060812
H           -3.45823723959893        1.18453420492895        0.03606344438886
H           -1.58491760170672       -2.57818011313841        0.03196504280632
H            1.02511913995674       -3.13667471746592        0.03230081603484
