23
 energy: -41.621814129845 gnorm: 0.000840762149 xtb: 6.6.1 (8d0f1dd)
N           -4.55353998963399       -0.13301719022517       -0.00116657404583
C           -3.45193586645452       -0.46152766341824       -0.00394964091438
C           -2.11897162110473       -0.87685006226262       -0.00423624839702
C           -1.66439264202113       -2.20886202250262        0.00174232015375
C           -0.27852645758235       -2.24051677502215        0.00294443015198
C            0.20788837653497       -0.93031381356449       -0.00402474944796
C           -0.99578147089573       -0.02627172180510       -0.00833123987921
N           -1.08124939001547        1.27190795399930       -0.00883275876361
C           -0.08836425048078        2.15674190854339       -0.01069017291067
N           -0.54371621154828        3.43623842683931       -0.03992199961146
H            0.07014034516260        4.22042386294554        0.07580518676164
H           -1.53745179038340        3.56762250805314        0.02885964300070
C            1.30188697006598        1.95935407075470       -0.00915408314110
C            2.05472503210961        0.79187314045119       -0.01360434660644
N            3.40918124177151        0.92089879527462       -0.04344547102953
H            3.83157879148362        1.82885672137381        0.01436144510858
H            3.99942519420209        0.11001648429847        0.01540797672561
C            1.53750485059136       -0.53848746782608       -0.00486540333633
C            2.49506333119630       -1.57954589496596        0.00975568740970
N            3.28955031436789       -2.40882854834627        0.02714114287950
H            1.88454132601640        2.87450336157561       -0.01217203825080
H            0.32947432990503       -3.12620761261803        0.00755009893279
H           -2.31020328678695       -3.06914538335229        0.00470475801015
