28
 energy: -53.841302631906 gnorm: 0.000844884643 xtb: 6.6.1 (8d0f1dd)
N           -5.03978471437452       -0.38450207811764        0.05256618238062
C           -3.89007881871359       -0.35608777352183        0.02827231389294
C           -2.47806572997090       -0.33674480046947        0.00567523274433
C           -1.87493583937122       -1.61578822939231       -0.00499589600857
C           -0.50039117228811       -1.89698657556158       -0.01189263025968
C            0.57097316115758       -1.04008140856596       -0.00662029563792
C            1.91951154258214       -1.46826591194904       -0.00344825748013
C            2.35725120232968       -2.79044175465526       -0.00535611954548
N            2.72868740248377       -3.87957888478248       -0.00628610524750
C            2.75493353454461       -0.33362840519103        0.00486471400116
N            4.09185496653461       -0.32468532417733        0.01321929018286
H            4.60707376584044       -1.18803323093455        0.01460115808299
H            4.58642878326317        0.55159656743665        0.02052778647450
C            1.92713235068876        0.82977208616270        0.00355551704874
C            2.49414398280766        2.10574179202726        0.01453568369133
N            3.09222821300437        3.08795548810491        0.03092687693960
C            0.58344715679133        0.43238261603070       -0.00362487913731
C           -0.52288955718921        1.28439476167764       -0.01197526872032
C           -0.24899964809958        2.67326228166822       -0.03011970623316
N           -0.10976507970367        3.81326747966784       -0.04332755549551
C           -1.90408798670123        0.95871903076063       -0.00492722206492
N           -2.77057314374040        2.00056200623126       -0.00610808997769
H           -2.42630304994477        2.94544937825805       -0.01118739010499
H           -3.76310869274295        1.84166914419186       -0.00195033142086
H           -0.24587054325575       -2.95150289184243       -0.01842355714441
N           -2.69801405387588       -2.69352714399076       -0.01916339714980
H           -2.31124658634602       -3.61932648724150        0.01455837534371
H           -3.69655185941032       -2.58402552422457        0.02104456874546
