24
 energy: -41.354768960135 gnorm: 0.000819717771 xtb: 6.6.1 (8d0f1dd)
N            4.76313408964554        1.23953029355448        0.03536948848723
C            3.66909714708405        0.88917401893957        0.00915057592800
C            2.32262453114552        0.45931037854790       -0.00984421107645
C            1.39044309522646        1.49973587853559       -0.01058856711039
C            0.01084909086580        1.45387684318068       -0.01240334737478
C           -0.80417579837452        0.33269545627771       -0.00698385184358
C           -0.39573824380568       -1.08776151380723       -0.00481235024708
C           -1.56428901381640       -1.85340409117353        0.00591664974901
C           -2.67102533468199       -1.00531923970713        0.00937928772014
N           -3.97094959297114       -1.35825229968954       -0.00655179351809
H           -4.23567147630359       -2.32214900409849        0.08560881737164
H           -4.67941883291812       -0.64977348995659        0.07283536375977
C           -2.20426669409287        0.34521494625645        0.00138208361952
C           -3.03436803369035        1.46238714719942        0.01298627069163
N           -3.75333808035885        2.36180504236277        0.02838937426214
H           -1.60567438871859       -2.92668625676402        0.00926349717898
C            0.88727404557486       -1.60062055297461       -0.01148707113645
C            2.12047870823255       -0.94518355361798       -0.01828413784098
N            3.23476320250759       -1.73287391252915       -0.07042869564572
H            4.14473419458256       -1.32042379602652        0.04268784310498
H            3.14640450434912       -2.72402189421295        0.06189439154197
H            0.94725224943107       -2.68443799878598       -0.01348042139823
H           -0.50432384557235        2.40725637933084       -0.01412338514833
H            1.82981762935926        2.49082395305829       -0.00701556867492
