22
 energy: -42.711215522276 gnorm: 0.000505083973 xtb: 6.6.1 (8d0f1dd)
N           -4.84896941008615       -1.55945790882817       -0.00048977431444
C           -3.75275660758603       -1.22623668962618       -0.00103302614028
C           -2.39067600831175       -0.82133949041715       -0.00057132291878
C           -1.46177343143662       -1.87889838316409       -0.00090845830338
C           -0.08923733285224       -1.81965323752132       -0.00085590846260
C            0.71619834998662       -0.68171803898744       -0.00045007050571
C            0.31428359229812        0.74036892734627        0.00002261771465
N            1.38444452803680        1.53412613577043        0.00033606037479
C            2.46895746409350        0.74591814059961        0.00001203681001
N            3.70261087664135        1.24788642710507        0.00012141946591
H            4.50519060696422        0.64279245696808       -0.00010193616157
H            3.81726705274313        2.24674551127389        0.00046432154709
C            2.11262972659226       -0.64137755010357       -0.00055143302803
C            3.01419182161360       -1.70343992261266       -0.00135890606321
N            3.78295033468388       -2.55800899888746       -0.00030534703900
C           -0.98253059042675        1.25963437481126        0.00020363657078
C           -1.08562218319879        2.67600819166415        0.00120583363505
N           -1.20895329754546        3.81463825011849        0.00032605235251
C           -2.18553544325892        0.55400913861132       -0.00007148246653
H           -3.08274143970961        1.16385447656886        0.00013273256286
H            0.44296397434552       -2.76386803385477       -0.00115911558694
H           -1.90154484148669       -2.86919783983466       -0.00127969434318
