21
 energy: -38.985798780167 gnorm: 0.000559172541 xtb: 6.6.1 (8d0f1dd)
N           -5.11603413471418       -0.00101970107883       -0.00005719231958
C           -3.97088245176350       -0.00077654501415       -0.00006631161816
C           -2.54765901240426       -0.00049149141963       -0.00005666483359
C           -1.96047251210622       -1.26983549925757       -0.00017783697384
C           -0.61449734218483       -1.59494586097282       -0.00018720973065
C            0.47038469518725       -0.73609408012865        0.00000372286810
C            0.47008802472457        0.73632837249056        0.00014108947263
C            1.82578144540010        1.13831678698836        0.00019957166102
C            2.26644951123506        2.46833510272283        0.00013808937314
N            2.60579960217645        3.56485768995011        0.00046684697336
C            2.63943646856161        0.00055306000483        0.00009413669954
C            1.82623889085010       -1.13753546748046       -0.00024487420512
C            2.26744636622335       -2.46738124934430       -0.00155703946401
N            2.60726706150512       -3.56381283233511        0.00117748891761
H            3.71452950378726        0.00076843783957       -0.00005481637712
C           -0.61513984038021        1.59474196866980        0.00013644876025
C           -1.96098375213091        1.26908860530891        0.00006418603509
H           -2.65586985064266        2.10009084943270        0.00008371304974
H           -0.37423205861219        2.65208832620713        0.00018349105493
H           -0.37316373061899       -2.65219530716679       -0.00030818698568
H           -2.65502376779289       -2.10111780591651       -0.00027532145766
