21
 energy: -38.181829266504 gnorm: 0.000709932082 xtb: 6.6.1 (8d0f1dd)
N           -4.59831486614496       -0.34896532437288       -0.00086134550245
C           -3.52443474949378        0.06064661820059       -0.00182848363826
C           -2.21280210313200        0.54169074707759       -0.00057982078763
C           -1.82133058909973        1.89849456273529       -0.00028379699041
C           -0.44206985675031        1.98375060140151        0.00034191828446
C            0.09343881170017        0.68672907886467        0.00058900936812
C           -1.05682994743440       -0.25632009341509       -0.00000385259238
C           -1.01125724585144       -1.63658193585645       -0.00043877927184
C            0.12972816521638       -2.43727330341339       -0.00033477692944
N            1.40633046342093       -2.13459626932127        0.00069366929987
C            2.01130507869228       -0.95830827047336        0.00178611650719
N            3.36129583411124       -1.05550059923364        0.00353402972536
H            3.76178548821695       -1.97662220228942        0.00293304812599
H            3.95231035730053       -0.24315975717470        0.00314591925249
C            1.43931105462089        0.35529124331841        0.00139870318842
C            2.35939649609784        1.42948611616561        0.00188227095703
N            3.13631602128851        2.27494365525108        0.00201797435377
H           -0.03331792879059       -3.51125737858789       -0.00113177745698
H           -1.96604852065043       -2.14838403650158       -0.00105645578609
H            0.13607015637252        2.88869181585246        0.00061042999430
H           -2.50496456139058        2.72858127967247       -0.00064177050148
