22
 energy: -41.917464454840 gnorm: 0.000721108280 xtb: 6.6.1 (8d0f1dd)
N           -4.78687721738019       -1.07597956185771       -0.00583028956646
C           -3.66639453866711       -0.82216706078615       -0.00470445461318
C           -2.29425287698976       -0.49008339840016       -0.00221138845807
C           -1.41343316308499       -1.57255419983536        0.00039369328867
C           -0.03218542736287       -1.57154435561882        0.00293115143080
C            0.78868765433540       -0.45409041719969        0.00360084890747
C            0.37331132788258        0.98784926438286        0.00182911281351
N           -0.81877576013257        1.51497244972918       -0.00096755581618
C           -1.99556517345242        0.90810892708065       -0.00294396611058
N           -3.03081304790061        1.77378781943863       -0.00606912998267
H           -3.98590511573802        1.46091891872640       -0.00751455859123
H           -2.81152554767637        2.75456975806031       -0.00635075271067
N            1.44756468780459        1.77879099343543        0.00347782702408
C            2.52559244759592        0.98693760521287        0.00603579506834
N            3.76269705443189        1.48355567207318        0.00813309351623
H            4.56063731227059        0.87237070842697        0.00997126518104
H            3.88353573983225        2.48122777833991        0.00773881889647
C            2.18257037349197       -0.40522527226870        0.00619961178957
C            3.09666772050278       -1.45359667523351        0.00846858147368
N            3.87926318538424       -2.29732554967527        0.01085190580576
H            0.46333709211661       -2.53500968233558        0.00458697634244
H           -1.89101090696394       -2.54577790649544        0.00037705681099
