20
 energy: -39.247918095143 gnorm: 0.000696025119 xtb: 6.6.1 (8d0f1dd)
N           -5.07632859010339        0.02942477144084       -0.00104274583506
C           -3.93180247255335       -0.00876011120329       -0.00107656570774
C           -2.51133193476454       -0.05253560226779       -0.00066935930993
C           -1.88136343716092        1.21263102693683        0.00004323704165
N           -0.61467288628226        1.53265948267548        0.00035400192872
C            0.41357175635117        0.72135553246966        0.00010078392614
C            1.75119587301843        1.17109932081933        0.00049249678663
C            2.16155020823986        2.51323852047406        0.00138974206868
N            2.51707859047331        3.60316788421177        0.00114909478778
C            2.60305000723117        0.06000998701123        0.00009860772194
C            1.83963950992411       -1.11383784821461       -0.00036564835369
C            2.33657157738641       -2.42487524145681       -0.00051457359412
N            2.71430151794225       -3.50839688820183       -0.00134584121389
C            0.47070311588036       -0.77370536858927       -0.00047655529102
C           -0.59141866620027       -1.65302811986384       -0.00101794338660
C           -1.94352515638946       -1.32587278656818       -0.00114451929261
H           -2.64145366319914       -2.15437934566291       -0.00166630045200
H           -0.34390316777442       -2.70880889293305       -0.00142217890352
H            3.67776689873284        0.10164102302534        0.00024381000431
H           -2.54247153095218        2.07416684159708        0.00036895627434
