26
 energy: -49.603530953487 gnorm: 0.000710753598 xtb: 6.6.1 (8d0f1dd)
N           -5.01128061533699       -0.10257176297388       -0.00163625397691
C           -3.86139480944753       -0.04969767831437        0.00144587102422
C           -2.45509551895356        0.01547939734590        0.00002627505608
C           -1.79084393945096       -1.25039306190792       -0.00117383632619
N           -0.50137633790115       -1.53405468401730       -0.00146735500807
C            0.51865694774883       -0.71125283570355       -0.00080652895800
C            0.54473429592341        0.77581984148929        0.00028782794850
C           -0.52556925201818        1.63027801281614        0.00098294958290
C           -1.89857652890591        1.31125068787976        0.00094509884202
N           -2.75378410765757        2.36237768475963        0.00204183866482
H           -3.74826178787620        2.21551298804558        0.00189610608225
H           -2.39932208829334        3.30128540696202        0.00252186483282
H           -0.29154175308885        2.68974922455486        0.00180056220051
C            1.90571458516794        1.15817957334711        0.00055509970670
C            2.38925257095132        2.46384594742042        0.00152177073587
N            2.79921824182206        3.53940616971760        0.00187793242733
C            2.70564600733437       -0.00514125937983       -0.00032413270474
N            4.04260176472824       -0.04477907215900       -0.00038621768220
H            4.51928540278480       -0.93035572781140       -0.00106128980223
H            4.57556024005870        0.80794256846315        0.00018283820793
C            1.85048978637430       -1.14485262382218       -0.00120107397400
C            2.31199151493037       -2.46081524623852       -0.00247082866005
N            2.75409607583926       -3.52254737326914       -0.00244415533950
N           -2.56410826281353       -2.35920020884809       -0.00216978163395
H           -3.56743857993781       -2.31199096511763       -0.00168210412996
H           -2.09340687338204       -3.24692311023870       -0.00271947081613
