23
 energy: -41.632233687489 gnorm: 0.000293058107 xtb: 6.6.1 (8d0f1dd)
N           -4.91484964489037       -0.05867193843711       -0.00084578710635
C           -3.77733849428857        0.10681711661208       -0.00019258317678
C           -2.37906009936620        0.29252215684368        0.00018346133531
C           -1.94743826616894        1.61921858228861        0.00031118198084
C           -0.65894047154794        2.11937728180486        0.00079700774281
C            0.52365704355155        1.39213946458298        0.00123245669680
C            0.64160234314641       -0.10180771515839        0.00122774601299
N           -0.27747692105098       -1.03218547061937        0.00090477055289
C           -1.59290931120061       -0.90162886684524        0.00049490043414
N           -2.24258771201792       -2.08850345183661        0.00041781692027
H           -3.24547403723113       -2.14376191155938       -0.00013849858976
H           -1.68327872436197       -2.92297370964296        0.00045130849218
C            2.01310415406581       -0.39039532732139        0.00163103988421
C            2.61541709842358       -1.64714051145636        0.00173637457953
N            3.17203834611675       -2.65396925148795        0.00217471651431
C            2.73144107797327        0.83908755638416        0.00198333279270
N            4.06930886332264        0.93603686029279        0.00226227378211
H            4.51890967864432        1.83378651607834        0.00327185729817
H            4.63065121124887        0.10189889274616        0.00305273179586
C            1.81252571227974        1.90174668599595        0.00171357334998
H            2.07517485546742        2.94365191200916        0.00184083312617
H           -0.55628473554174        3.19786185541888        0.00083969421083
H           -2.74544805047394        2.35329552710711        0.00002280197076
