21
 energy: -33.386252432966 gnorm: 0.000878098104 xtb: 6.6.1 (8d0f1dd)
N            4.74030486624082       -0.00165819866175        0.01355540467617
C            3.59277233279316        0.00036859652471        0.00755557392846
C            2.17572141492443       -0.00007792531166        0.00118793189489
C            1.58361603413596        1.26855450627503       -0.00113794396213
C            0.24274996194383        1.59395422333807       -0.00436548287848
C           -0.85597158906680        0.74407811895371       -0.00398328822376
C           -0.85602976981986       -0.74411225628654       -0.00430759796141
C           -2.18445346355573       -1.14253655158118       -0.00035307900022
C           -3.00422302045652        0.00009812362973        0.00428807489774
N           -4.35983975208495        0.00019654327257       -0.03766193927916
H           -4.84814542379948        0.85848751326748        0.14918299185806
H           -4.84825999320598       -0.85810537587853        0.14881828905365
C           -2.18433990675820        1.14264462162045        0.00014438670663
H           -2.53499168977527        2.15844793493359        0.00104407847969
H           -2.53522273593212       -2.15829877506281        0.00010432349107
C            0.24264436676581       -1.59406970269033       -0.00505858319057
C            1.58356201923011       -1.26873247008373       -0.00168770230911
H            2.28090721447793       -2.09866555989490       -0.00130957288744
H            0.00782468239614       -2.65248846249351       -0.00746554912491
H            0.00802739727840        2.65238983182662       -0.00631091910377
H            2.28103913516833        2.09841383920295       -0.00039733126537
