22
 energy: -37.906389442273 gnorm: 0.000404773683 xtb: 6.6.1 (8d0f1dd)
N           -4.77940732302445       -0.36413266103960        0.00371810148111
C           -3.63271616581913       -0.38210512633160        0.00020543563299
C           -2.21469924187472       -0.41222255253099       -0.00124181051104
C           -1.64900472334817       -1.69478391757231       -0.00266332921315
C           -0.31735918276394       -2.05214650679536       -0.00248591470632
C            0.80523096998780       -1.23220797891606       -0.00039471111270
C            2.12019334034965       -1.66819129739258        0.00449258534510
C            2.97484994616825       -0.54863026200749        0.00776068266553
N            4.32133932500371       -0.58304651651112       -0.01282122943161
H            4.80458510552223       -1.45765793164989        0.08689620992959
H            4.84430605949869        0.26919816753355        0.08120438166232
C            2.18614070064564        0.62026038000826        0.00289422779391
C            0.85255856587630        0.25641650297893       -0.00083210134001
C           -0.23869424813634        1.13632999682300       -0.00172665390113
C            0.07911824989313        2.51879890668443       -0.00110353776798
N            0.32540674461443        3.63887512581148       -0.00009211968202
C           -1.59764556657148        0.83897255424602       -0.00118832623799
H           -2.26719497676218        1.69247918930529       -0.00082663458636
H            2.56428954933040        1.62559801483754        0.00317489393872
H            2.44073650980497       -2.69331936327204        0.00609744831958
H           -0.10862694143916       -3.11571936227847       -0.00324316396425
H           -2.36566712455567       -2.50783998113102       -0.00369463121427
