20
 energy: -33.662732426382 gnorm: 0.000485513260 xtb: 6.6.1 (8d0f1dd)
N            4.03366228422441        1.13351549395204        0.04200391588810
C            3.09247046587762        0.47281108318380        0.02539127897325
C            1.94685332715537       -0.32424812029213        0.00758963419384
C            1.92020176870113       -1.74143905089830       -0.00095007786289
C            0.61672539312427       -2.17756906915174       -0.01456204024281
C           -0.24302545068821       -1.05713281492038       -0.01429444041259
C            0.62657190027223        0.14539630676334       -0.00258793833176
C            0.21621192454295        1.46854587553466       -0.00843856950664
C           -1.09093909761390        1.93987408427354       -0.01931163187134
N           -2.25006306213054        1.31580778551259       -0.01267682279937
C           -2.50248634578115        0.01699951843049       -0.01049512596273
N           -3.83361467590860       -0.26728702790447       -0.03841019564675
H           -4.17012662158495       -1.19876056052581        0.12172967422545
H           -4.46933027583621        0.50509533954263        0.05657988129897
C           -1.61096486678169       -1.08551115554218       -0.01751629733544
H           -2.07657244330113       -2.06521471143111       -0.02510303413923
H           -1.21354776270907        3.01966236490236       -0.02693420165124
H            1.00235794725167        2.21431548272929       -0.00394842829904
H            0.29023040416405       -3.20066960110262       -0.02328893426098
H            2.79870276482168       -2.36233735095599        0.00252574714327
