22
 energy: -37.112034794883 gnorm: 0.000583831666 xtb: 6.6.1 (8d0f1dd)
N            4.50701313252919        0.56083704971965        0.02809383591199
C            3.36211219126138        0.45750276689431        0.00652491890098
C            1.95551501454244        0.33616810231764       -0.00873021245059
C            1.27784574776834        1.56859825170861       -0.00312601959020
C           -0.06529027761622        1.84020532268969       -0.00337248994220
C           -1.12265434702371        0.92724375878267       -0.00317850884995
C           -2.47688385295424        1.19110625545331       -0.00041033407602
C           -3.12374211063469       -0.06932788042093        0.00058846917163
N           -2.25885350548847       -1.09276935624348       -0.00232850973850
C           -1.02787506473375       -0.55327154702825       -0.00500226593960
C            0.09258564507375       -1.34666783553838       -0.01467582822355
C            1.44652285800938       -0.98046583957257       -0.02120573991044
N            2.34806735255870       -2.00271607922558       -0.07441028470139
H            2.02997959144670       -2.94679805064710        0.04833448957159
H            3.32960626969543       -1.81218245116475        0.03212003376275
H           -0.11128470928425       -2.41091626475949       -0.01908926199066
N           -4.45298691941935       -0.28592383780074        0.04238670699323
H           -4.77651973437559       -1.22937378426467       -0.07893249803722
H           -5.08838369822188        0.47196743038721       -0.12963401966773
H           -2.95974045562105        2.14886365026758        0.00231602261048
H           -0.35009310478873        2.88562850251057       -0.00014276089431
H            1.93779767197657        2.42948533973481        0.00380126708966
