20
 energy: -33.661331322220 gnorm: 0.000559610202 xtb: 6.6.1 (8d0f1dd)
N           -3.27078096385059       -1.98783637677715        0.00292406767100
C           -2.58011816492300       -1.06888930677530        0.00108095394852
C           -1.75763873877618        0.05968094741565       -0.00020197704233
C           -2.19585085444130        1.40176172722443        0.00555393328387
C           -1.10818339670041        2.25214103862761        0.00318452070147
C            0.07214085112638        1.49207368339051       -0.00351953483351
C           -0.35205413420383        0.05299418374394       -0.00663622874815
N            0.35909453709368       -1.04456513026063       -0.00927268495960
C            1.67493844798568       -1.16661613176283       -0.01387199008974
N            2.08923406093599       -2.46150097719119       -0.06068604730086
H            1.38009794386812       -3.16901708309080        0.02027300442361
H            3.04940889173135       -2.70953062501390        0.09195303830556
C            2.67718847219841       -0.16211800391720       -0.00671198591976
C            2.53784742728851        1.20371912597842       -0.00192671135495
C            1.36196207312165        1.96365155528307       -0.00200706010418
H            1.48464173126264        3.04080314087141        0.00161672864526
H            3.46023273492426        1.77168356024792        0.00290912151965
H            3.69211153581575       -0.54243843209935       -0.00716146638872
H           -1.14828089635191        3.32594954631451        0.00737308853691
H           -3.22999563650525        1.69868630529070        0.01150074080589
