20
 energy: -34.458499664080 gnorm: 0.000715435170 xtb: 6.6.1 (8d0f1dd)
N           -4.42981132337427       -0.05077427455644       -0.00034041489617
C           -3.29270667333079        0.08929655176241       -0.00227631782101
C           -1.88218400891789        0.27001010706141       -0.00043482151544
C           -1.45926078335686        1.60173373433387       -0.00021389301132
C           -0.16395315493199        2.09515046675009        0.00024947239997
C            1.02816498204568        1.39726290664026        0.00054690246102
C            2.30430855304555        1.96328968430911        0.00096105173783
C            3.25094763372541        0.94326189693825        0.00115230065489
C            2.60676573469866       -0.29529878260123        0.00084119757951
C            1.23188171350164       -0.08210975716797        0.00048446769365
C            0.24351062176467       -1.06645042855908        0.00010698795925
C            0.69983263020288       -2.41373725609175       -0.00016841300143
N            1.05450265473675       -3.50292024299443        0.00020868546217
C           -1.14141456375941       -0.91368151509681       -0.00032595661836
H           -1.71962733826244       -1.83091269365431       -0.00076681934519
H            3.08701258189949       -1.25612779777319        0.00086840111637
H            4.31711583609138        1.08416963634503        0.00147001761491
H            2.51226423444806        3.01699033259263        0.00108302736169
H           -0.06937700295408        3.17515400549844        0.00032403684145
H           -2.25469408007240        2.33715379426367       -0.00056705807377
