18
 energy: -30.218815595098 gnorm: 0.000766820384 xtb: 6.6.1 (8d0f1dd)
N            4.30608906698164        0.03308425708828        0.00281374001241
C            3.16008371686655        0.02251455586260       -0.00093290033329
C            1.73872824901483        0.00493664728686        0.00056492968574
C            1.17203007198649       -1.27816153855781        0.00041066691497
C           -0.16124342969108       -1.63042852991444        0.00020569565066
C           -1.26467821716826       -0.78899246451771       -0.00001042302215
C           -2.61279685997031       -1.14427399896903       -0.00037097284960
C           -3.33056306693782        0.05092170698820       -0.00051202042613
N           -2.54876358810935        1.13337749396808       -0.00024094697780
C           -1.28391613143936        0.69903820726446        0.00005583628700
C           -0.21394017683145        1.57401595260718        0.00036240576068
C            1.13556158824819        1.26347820596603        0.00055584342385
H            1.82146387035873        2.10270141685117        0.00057582168668
H           -0.48413950961238        2.62214876028454        0.00032938492449
H           -4.40051204706803        0.16496387289305       -0.00081303873778
H           -3.01873565202908       -2.13698895392264       -0.00054007452357
H           -0.37930907909581       -2.69257779131211        0.00007403751168
H            1.88679768099655       -2.09312041216672        0.00033117681221
