23
 energy: -41.639816938582 gnorm: 0.000598125630 xtb: 6.6.1 (8d0f1dd)
N            4.94005952305849        0.12556298999370        0.00569542024904
C            3.79350429332798        0.19643507448746        0.00463858913935
C            2.38089970855623        0.27552186506214        0.00187296551178
C            1.88285627674751        1.57728605216585        0.00008439595327
C            0.58016494322013        2.03804366391051       -0.00251637915902
C           -0.58018254565314        1.28200214372530       -0.00409436909001
N           -1.79160782355698        1.84420502915437       -0.00687891580253
C           -2.69255265470755        0.84803909033563       -0.00800998040789
N           -4.00787502959984        1.09240172824074       -0.00984585820048
H           -4.32476716681551        2.04517915151558       -0.01422970675467
H           -4.66827769017487        0.33586459246085       -0.01444400844496
C           -2.07363880518297       -0.43384684098288       -0.00600813049798
C           -2.73338859484044       -1.65673998862443       -0.00756826258819
N           -3.29726796051083       -2.66057126705629       -0.00679568780689
C           -0.68897664763275       -0.19198830561043       -0.00328000331840
C            0.30977774959446       -1.14434733454961       -0.00075506539801
C            1.69480780584844       -0.97183928947063        0.00163106004190
N            2.45411126136244       -2.09842228585979        0.00409985453402
H            3.45736185633841       -2.04280993040410        0.00521768096541
H            2.01586551526398       -3.00111748178843        0.00339000907663
H           -0.03189899564169       -2.17477433678875       -0.00061380233002
H            0.42948765063365        3.10869623713259       -0.00354252974490
H            2.65014974996486        2.34382798695065        0.00088391307253
