21
 energy: -37.376241612247 gnorm: 0.000671501764 xtb: 6.6.1 (8d0f1dd)
N            3.99998780430629        1.22226884216504        0.05956082000302
C            3.09824685450909        0.50896135971480        0.03797317556505
C            2.01224197929914       -0.36738771167852        0.01315350566639
C            2.08320997354280       -1.77552038361010       -0.01069819413925
C            0.81517044165651       -2.32928835654138       -0.03189457686949
C           -0.13117068118941       -1.29891603126761       -0.02100537606676
N           -1.42206049321150       -1.48335833474202       -0.02181647718068
C           -2.35702001476016       -0.52837433250999       -0.01110923778323
N           -3.61815026516436       -1.04064025864778       -0.04871795468906
H           -4.41582078453211       -0.46141110103378        0.13687858936280
H           -3.70447061368102       -2.03588277102138        0.05882718968662
C           -2.21369601125124        0.86359866759464       -0.00773071738627
C           -1.04353059449873        1.63261353236700       -0.00350612522221
N           -1.16090962380745        2.98603380114622        0.03160945086198
H           -2.04018982245927        3.43780840730426       -0.13778819022597
H           -0.31076266977734        3.51473172373727       -0.05770966642376
N            0.23153184908131        1.23519466128031        0.00743076971911
C            0.65601157711372        0.00491423294851        0.00470325461361
H           -3.14039904094128        1.42679946612552       -0.00806282707402
H            0.57986171827794       -3.37572244709050       -0.05271205785495
H            3.00673199828703       -2.32854695494055       -0.01208023516295
