19
 energy: -33.957667678699 gnorm: 0.000585436445 xtb: 6.6.1 (8d0f1dd)
N           -4.70682682977249        0.00241346414484       -0.00685433747758
C           -3.56010374029986        0.00142428430252       -0.00362799420026
C           -2.14092775313516        0.00101593048986       -0.00045199241558
C           -1.55357567643569       -1.27122089400722        0.00099990043869
C           -0.21922201456146       -1.61106957025428        0.00311607278797
C            0.86516191250004       -0.74186000188169        0.00363807499745
N            2.13448378688810       -1.14356878699788        0.00256926149225
C            2.85195155788509       -0.00088489085850        0.00202353184278
N            2.13535368797822        1.14234748134629        0.00227604965030
C            0.86572312362129        0.74160930523133        0.00344710784189
C           -0.21799979249935        1.61164874092696        0.00269454039719
C           -1.55262427646698        1.27282256557400        0.00066001710582
H           -2.25601463932702        2.09800930170646       -0.00034517274552
H            0.03692141429329        2.66305382969050        0.00316029732940
N            4.18538819993188       -0.00140131288376        0.01452305579782
H            4.67589995910153        0.87252887242709       -0.03742185644511
H            4.67521209422684       -0.87573035829637       -0.03720563424849
H            0.03487351317515       -2.66267461975092        0.00385701779566
H           -2.25759071340347       -2.09586822040923        0.00021907265535
