25
 energy: -40.270582292010 gnorm: 0.000444800621 xtb: 6.6.1 (8d0f1dd)
N           -3.40774530249088       -2.17578664277144       -0.09489707438616
C           -2.67699532800015       -1.28452504662986       -0.05383134128913
C           -1.82176636505951       -0.19183232920160       -0.01514149756595
C           -2.23553226740846        1.16697863670953        0.00424281689794
N           -3.52786846132145        1.57586284777207        0.05660086327666
H           -3.73828885825237        2.54108620024601       -0.12697770441400
H           -4.24786940940408        0.89832023947310       -0.12934290370777
C           -1.10046056052205        1.97862863465687        0.02152365450090
C            0.04222030492723        1.17560752270022        0.01552046215161
C           -0.41114810226989       -0.22782827127561       -0.00777900777976
C            0.34612073568542       -1.37444042130127       -0.01577468380416
C            1.74204908139068       -1.50657261310323       -0.00636711497342
N            2.22695155615471       -2.79613552558363       -0.07650591201059
H            3.18416343264458       -2.95307593061102        0.18989159564307
H            1.58810789499203       -3.53985525229616        0.14850356578866
C            2.68705185004945       -0.48464650138422        0.00069690228570
C            2.53675733902259        0.90348395665701        0.00656039974402
N            3.70474513139046        1.64065172891217        0.07569415423663
H            3.64456813322613        2.61499078998767       -0.16762560120216
H            4.55746039414266        1.18474594788034       -0.20262061883037
C            1.34587473600045        1.63321040945975        0.01760054064439
H            1.45908839703325        2.71226129949717        0.03161521727042
H            3.71831960211988       -0.82468376984599        0.00110268263095
H           -0.21443763688512       -2.30365910645898       -0.03120620845263
H           -1.10750829226555        3.05297576831106        0.03978670674516
