18
 energy: -30.214904009167 gnorm: 0.000572815532 xtb: 6.6.1 (8d0f1dd)
N            3.59173936492325        1.29427898297410        0.00141365843986
C            2.68926883564902        0.58282490029594       -0.00156109808373
C            1.57418761244924       -0.26052728595873       -0.00063668590214
C            1.59413666364064       -1.66836426210493       -0.00080602586791
C            0.29781340223067       -2.15432110869887       -0.00103175919156
C           -0.59659423790067       -1.07671689399073       -0.00083012915338
N           -1.90001019033273       -1.22329017803489       -0.00105350591633
C           -2.80167985580482       -0.27027229598702       -0.00092158271158
C           -2.67777852003158        1.12468435846047       -0.00051990900389
C           -1.53417343027625        1.90435991989821       -0.00016357818712
C           -0.20779798531535        1.47607026293776       -0.00014145105056
C            0.23442049616634        0.17193489364084       -0.00038096454305
H            0.55741679589272        2.24490743662480        0.00011743778824
H           -1.68535039153689        2.97647559373325        0.00013642384298
H           -3.61785804719936        1.66321830113704       -0.00046354056987
H           -3.81650756331984       -0.65795069005509       -0.00114864350696
H            0.00506824119821       -3.18625192451134       -0.00144458674363
H            2.49143239226742       -2.26183251496081       -0.00111041293938
