18
 energy: -34.210468835745 gnorm: 0.000474318473 xtb: 6.6.1 (8d0f1dd)
N           -3.34173064521657       -1.96903124631661        0.00011770524714
C           -2.64083175419119       -1.05916452971216        0.00016400515085
C           -1.78965116451835        0.05036868070123       -0.00015405113943
C           -2.17240475692662        1.39710547877014       -0.00064700061788
C           -1.05410884254157        2.23434115318027       -0.00078831769731
C            0.09261499868238        1.45603997061141       -0.00039326445749
N            1.32887086641237        1.90582227728811       -0.00028553188810
C            2.40246683209319        1.14075267849598        0.00014542169720
N            2.58759703694686       -0.16078354806994        0.00039560217853
C            1.67541865505765       -1.12890528626299        0.00038414539527
N            2.17075076339198       -2.37626575243059        0.00052610065593
H            1.53525989608526       -3.15446589766489        0.00062805529080
H            3.16572535088964       -2.51221225135701        0.00069343812960
N            0.32848714565590       -1.08802210123220        0.00029233829194
C           -0.37648485716043       -0.00269988871872       -0.00002036707788
H            3.33357833755496        1.70269888584337        0.00028130659668
H           -1.07096696938706        3.30689855412898       -0.00111311683445
H           -3.19558910262840        1.73219860524566       -0.00084454692141
