16
 energy: -30.751992768368 gnorm: 0.000576014321 xtb: 6.6.1 (8d0f1dd)
N           -3.58933924309753       -1.20423967335805        0.58142488720671
C           -2.65893145223029       -0.56353872378754        0.37970312941502
C           -1.53704734195302        0.23907684619835        0.13964491431786
C           -1.55666804699767        1.62906414343808       -0.11131330413095
C           -0.27601586124964        2.12466406377051       -0.31354426048602
C            0.63112865589525        1.07970802584088       -0.13445642685126
N            1.90915018125974        1.17439881667215        0.11470674853071
C            2.68941053739340        0.14246430441869        0.38683517284963
N            2.57414595929970       -1.11507099908726        0.02805169868231
C            1.48210252948873       -1.73051715720832       -0.36500312682423
N            0.21624143076262       -1.41222490113978       -0.16250241339346
C           -0.20786305025109       -0.19494141412797        0.03456927483970
H            1.63632265871499       -2.70600632810926       -0.81498548858811
H            3.62544285359704        0.40025405129056        0.87262559084875
H           -0.01545342370004        3.14738431181116       -0.50534544878024
H           -2.45956470443114        2.21473037547813       -0.13821172223652
