17
 energy: -30.499342705287 gnorm: 0.000540138200 xtb: 6.6.1 (8d0f1dd)
N            4.29944648760097       -0.00063218467716        0.00048633450941
C            3.15391297949289       -0.00045740643700        0.00040800821864
C            1.73102591730881       -0.00028104116619        0.00020826137562
C            1.14907145439340       -1.27368477487588       -0.00012110859488
C           -0.18879781035107       -1.61361451363535       -0.00040303579188
C           -1.26592896468108       -0.74232654938235       -0.00041003282926
N           -2.54548931344729       -1.13376756107781       -0.00068751764550
C           -3.24545884682469        0.00033267419537       -0.00057550648719
N           -2.54520961446254        1.13426002623693       -0.00026023291627
C           -1.26574581622469        0.74250324389378       -0.00013080845339
C           -0.18839984270232        1.61352532157186        0.00020251151203
C            1.14938546770081        1.27326560582539        0.00035548173408
H            1.85432641292402        2.09689614407787        0.00062239964271
H           -0.44276505404978        2.66551139717590        0.00035732274710
H           -4.32021333480807        0.00046520795083       -0.00075401756329
H           -0.44342270114759       -2.66553778371141       -0.00064392791410
H            1.85380933237826       -2.09748912456479       -0.00016191034383
