20
 energy: -38.472895291973 gnorm: 0.000505888373 xtb: 6.6.1 (8d0f1dd)
N           -4.12260575028915       -0.29965457620189       -0.00073220576714
C           -2.99560262690262       -0.50598126991962       -0.00037192844487
C           -1.60937103840088       -0.80773959442427       -0.00042573230868
C           -1.26029454229108       -2.15554278432701       -0.00053306597682
C           -0.00238368257677       -2.74094068443743       -0.00052397386448
C            1.25657803920804       -2.15780624561127       -0.00038267494137
C            1.60807765574371       -0.81063336182722       -0.00022858542629
C            2.99485118592319       -0.51136814631375        0.00037384588447
N            4.12223466769994       -0.30706516008160       -0.00049594391150
C            0.74224752624107        0.28852959807407       -0.00019043721869
N            1.14349104954821        1.55291588165565        0.00000218280761
C            0.00212775314784        2.27543128856466       -0.00001814059578
N           -1.14053344343152        1.55497032767513       -0.00018264684350
C           -0.74156510633387        0.28986437582977       -0.00027867113968
N            0.00332188368958        3.60341851015083        0.00012445436374
H            0.88004934672506        4.09313104954233        0.00018227011607
H           -0.87252382623549        4.09470628157964        0.00007690591769
H            2.09420271069680       -2.84587205554586       -0.00034256052332
H           -0.00335745105662       -3.82381891771950       -0.00060362285335
H           -2.09915508450542       -2.84210123306267       -0.00063588547412
