21
 energy: -38.188252334148 gnorm: 0.000841450598 xtb: 6.6.1 (8d0f1dd)
N           -4.16328047609496       -0.21718119326538        0.00001719072123
C           -3.04712491863930       -0.48082178367914        0.00141084713090
C           -1.66606040672516       -0.80191036514176        0.00046826054905
C           -1.34889553785541       -2.15116138373018       -0.00098677449754
C           -0.09529509603279       -2.76090249661705       -0.00148742316136
C            1.16328877112391       -2.19545531661785       -0.00076586187033
C            1.53039010625916       -0.84378970698633        0.00077684577537
C            2.92440047346588       -0.57968133252651       -0.00100460624554
N            4.05914868220935       -0.41977814597277        0.00426743348215
C            0.69510686936476        0.27162993001112        0.00201448729489
N            1.17511833386821        1.51224813655027        0.00352907211368
C            0.11483918626008        2.34391158333046        0.00463496231821
N            0.28963472259773        3.66919394914731        0.00522425272289
H            1.22767015973204        4.02925762511973        0.00943007431510
H           -0.49354146000443        4.29642092976505        0.01137551533668
C           -1.11521260703716        1.64059225174957        0.00357731771384
C           -0.78962023824376        0.30027443837604        0.00184942463398
H           -2.09533123383254        2.07507412088595        0.00402472394392
H            1.99591193262939       -2.88930656531680       -0.00152479855328
H           -0.11618986094578       -3.84355646159493       -0.00273225405737
H           -2.19828013539924       -2.82466767698681       -0.00180450486648
