21
 energy: -33.379706059066 gnorm: 0.000382649974 xtb: 6.6.1 (8d0f1dd)
N            3.90133218601325        1.47117100586068        0.00595711973826
C            2.94110943997851        0.84020062075416        0.00319875834547
C            1.75417218125015        0.07517641487375        0.00321193373876
C            0.56289029951390        0.81401128400785        0.00225091630007
C           -0.72820084113905        0.35111683725614        0.00436387475478
C           -1.18371364664362       -1.07175634402716        0.00152103318720
C           -2.58381214646938       -1.03532380270723       -0.00487974006720
C           -3.01034531513088        0.28300879779479       -0.00421818913092
C           -1.89948482606037        1.13979533611945        0.00514981869394
N           -1.96249179875877        2.50952018377816       -0.05780162521840
H           -1.15173090239239        3.02189691133742        0.24845769014880
H           -2.84315370696793        2.92315807263969        0.20125716155081
H           -4.03474136277548        0.61166758496456       -0.00924925473639
H           -3.22179956236278       -1.89974077918217       -0.00819391650688
C           -0.41221277969522       -2.20688378065721        0.00381196852608
C            0.98226339897708       -2.32094565123194        0.00752018956220
C            1.92616995215910       -1.31898236284180        0.00533627785429
H            2.96203067290267       -1.64144649565642        0.00578535836351
H            1.36913198298312       -3.33193734411201        0.01077324501817
H           -0.96093584581489       -3.14245078886009        0.00269980469515
H            0.69826892493299        1.89162824398929       -0.00670348331773
