20
 energy: -34.463608385086 gnorm: 0.000080959416 xtb: 6.6.1 (8d0f1dd)
N           -4.35401137669726       -1.77050648636837       -0.00152358540534
C           -3.42038184820537       -1.10517732914353       -0.00116588679301
C           -2.26516219644774       -0.28119904880583       -0.00069607538834
C           -1.04356415888960       -0.95759043710995       -0.00087116572044
C            0.22687922095638       -0.41784011417594       -0.00050048278338
C            1.41388166001318       -1.15069998182068       -0.00071288646549
C            2.49029676853875       -0.25153259275816       -0.00029153030125
C            3.84758438899975       -0.61138259690764       -0.00034909480543
N            4.95695018678306       -0.90396547156390       -0.00035529448618
C            2.00198154219924        1.06316915244740        0.00025618119316
C            0.60779530545844        1.01855599219878        0.00017677890485
C           -0.22864380033970        2.11983244993420        0.00063142632573
C           -1.61811002615336        2.15342218158334        0.00057997722744
C           -2.51160026314283        1.09800491038004       -0.00000483488936
H           -3.56195851893424        1.36800546897200        0.00006438919422
H           -2.06405335203534        3.13982523803241        0.00099210858573
H            0.27134361741718        3.08185912659549        0.00102621814489
H            2.60540938174233        1.95162786745238        0.00068137750781
H            1.49522796191534       -2.22155540327454       -0.00114231945954
H           -1.10182748517819       -2.04109952486751       -0.00135104878608
