20
 energy: -33.654731510492 gnorm: 0.000740934393 xtb: 6.6.1 (8d0f1dd)
N            4.41276368583333        0.73773375162388        0.01294693163684
C            3.31494942444494        0.40107959658564        0.00431854549558
C            1.96519120123815       -0.01699190004052       -0.00178309366238
C            1.00860112376055        0.99835565044474       -0.00039887158202
C           -0.36255620698109        0.86119285840116        0.00013579254269
C           -1.16332729652966       -0.39616738217790        0.00598813795379
C           -2.51188099729361        0.07703739625134        0.01273065792706
N           -2.57226023799518        1.40954097677040        0.00598643946736
C           -1.31553825261914        1.87653178661860       -0.00285646655486
H           -1.13704531493020        2.93573846557003       -0.00650527852923
N           -3.64320085184974       -0.67452701983476       -0.03960300754062
H           -4.49954435616206       -0.17342565715175        0.13097903159745
H           -3.60552474483163       -1.62481345171333        0.28678337499809
C           -0.72691310124573       -1.68634505971687       -0.00131618521672
C            0.60380501300083       -2.14621631115228       -0.01207035800768
C            1.76458867931445       -1.41509313838374       -0.01177790400181
H            2.68414725787852       -1.99135307688800       -0.01946212713745
H            0.72209345920007       -3.22190874178601       -0.02127665673390
H           -1.48562859211105       -2.46194346306042       -0.00466251224528
H            1.38805125557826        2.01499475623993       -0.00054257580692
