22
 energy: -37.103582060697 gnorm: 0.000738901145 xtb: 6.6.1 (8d0f1dd)
N            4.32966029132430        0.17872771291209        0.00543093943968
C            3.20352318365036       -0.05825840833451        0.00114281559932
C            1.82297077700050       -0.34054174050207       -0.00205701790816
C            1.50885234602785       -1.70540080828808       -0.01131688094795
C            0.29595051762840       -2.35696896268289       -0.00891298821838
C           -0.98136287711968       -1.79145002832473        0.00718893844064
C           -1.30805526319933       -0.46231830649570        0.01601860333335
C           -0.44369699174315        0.73028576922488        0.00525923368570
C           -1.33175267650427        1.80026496697948        0.00478119482350
N           -2.61986751602216        1.41422349406015        0.01960913676839
C           -2.63093425439224        0.08499788436265        0.02708511709210
N           -3.80268741480917       -0.60960555554102       -0.02363035226334
H           -4.62469586006906       -0.05852306291663        0.16302048163573
H           -3.81063416044515       -1.54906958650392        0.33554382040312
H           -1.11747960839901        2.85434967866176       -0.00050234070446
C            0.95875897748886        0.79032986559456       -0.00104543426456
N            1.54362528915710        2.00444491442226       -0.00270049450812
H            2.54642648268549        2.08576009944580       -0.01841008057516
H            0.98303239485196        2.83593501139854       -0.01677208346558
H           -1.80744440612119       -2.49406655475184        0.00640637175424
H            0.33846328136757       -3.43779373194631       -0.01924961944817
H            2.38289511324197       -2.34900991757436       -0.02035820137194
