22
 energy: -37.914076516182 gnorm: 0.000800694152 xtb: 6.6.1 (8d0f1dd)
N           -3.39359861801324       -2.29600051845460       -0.00220120409775
C           -2.73021268224418       -1.36009649012212        0.00015755229433
C           -1.92296814689446       -0.19449080055541       -0.00022736070552
C           -2.61646447682578        1.01372593797098       -0.00027446300699
C           -2.11744432883519        2.30827592010515       -0.00009563463568
C           -0.80150823941254        2.74885645990633        0.00026172245154
C            0.36958713631496        2.00526997483779        0.00044925027937
C            0.51290266930021        0.62907874809366        0.00023773275251
C           -0.53640563886637       -0.40978477452615       -0.00007992153623
C            0.09412902711133       -1.64571648601315       -0.00050991272585
C            1.48442673538033       -1.45377199288872       -0.00063327629357
N            2.42765990515576       -2.41090450901445        0.00270566920859
H            3.40053046484456       -2.15975243752012       -0.00883473238050
H            2.16821857291559       -3.38041523240183       -0.01034226425885
C            1.74060949917222       -0.05513507004023       -0.00023347023630
C            3.01247474628848        0.51429441432113       -0.00189945983008
N            4.07748977532337        0.95020734001635       -0.00140410140098
H           -0.39856710897977       -2.60011028844819       -0.00085789755885
H            1.29821937193162        2.56523841017474        0.00076326115966
H           -0.67031420166292        3.82363862916531        0.00043413164462
H           -2.86901010034601        3.08818598298176       -0.00019432374480
H           -3.69664534995795        0.92178905451177       -0.00046228007865
