18
 energy: -30.211039986260 gnorm: 0.000433160519 xtb: 6.6.1 (8d0f1dd)
N            3.97549295782536        1.03299718800694       -0.00069251202815
C            2.91565415599064        0.59493848086283        0.00177641218176
C            1.60457264082268        0.05550019277191        0.00026498919762
C            0.56475726871228        0.99151132038799        0.00032107363992
C           -0.78574875064092        0.73313771968054        0.00027160953694
C           -1.47676725702952       -0.58162642334050        0.00021001229598
C           -2.83809945219208       -0.24298969505301        0.00023650541638
N           -3.02971330924212        1.07556120131204        0.00032226930864
C           -1.83411073717689        1.66467784032021        0.00036147691123
H           -1.75022428485582        2.73569967000958        0.00043481849115
H           -3.67420246737049       -0.91770779729312        0.00021316343359
C           -0.92317362434277       -1.84252256962276        0.00012871480266
C            0.42826982164483       -2.18035705889523        0.00010979470275
C            1.52974154782652       -1.34493879800354        0.00019969858615
H            2.49410114855161       -1.84213595540530        0.00036135533320
H            0.64839121018729       -3.24024183815506        0.00010006296859
H           -1.62640191747474       -2.66774039297999        0.00007761775900
H            0.85951811236413        2.03571389639646        0.00057561466256
