21
 energy: -38.193536178620 gnorm: 0.000684217179 xtb: 6.6.1 (8d0f1dd)
N           -0.33779394294332       -3.41908566740270        0.00012511141715
C            0.17866745877125       -2.39586557005079        0.00030722901803
C            0.87966386553702       -1.16136859671315        0.00008670284215
C            2.26663760299911       -1.27348224719500       -0.00076720666400
C            3.23173843942760       -0.27448280101432       -0.00092355564308
C            3.07856626627428        1.10380580706135       -0.00026140841835
C            1.91420204362193        1.85573149058332        0.00070203901997
C            0.60525454678911        1.40412454021931        0.00123907814270
N           -0.42192935682338        2.26269865667707        0.00202086975078
C           -1.54656699030914        1.53995161050625        0.00242067521897
N           -2.75807243246152        2.10239184859831        0.00363873420456
H           -2.83220018243017        3.10393025597370        0.00297687545426
H           -3.58341726251484        1.52915354021184        0.00273406668408
C           -1.27864627511391        0.13202152095760        0.00192953370005
C           -2.28864796331464       -0.82899625453791        0.00258693300950
N           -3.20203224548654       -1.52686332523824        0.00106044208479
C            0.11135343038196        0.01159096593963        0.00093376434316
H            2.01330334438641        2.93311522151331        0.00103153188103
H            3.99963091626217        1.67336277916128       -0.00059715861213
H            4.25470909485034       -0.62995734906309       -0.00171531602548
H            2.64029650079627       -2.29114451808775       -0.00135516470813
