20
 energy: -33.670390146510 gnorm: 0.000918399108 xtb: 6.6.1 (8d0f1dd)
N            1.48341915219053        3.33303763775122       -0.00248403110096
C            1.35385665150836        2.19291255907207       -0.00313508327318
C            1.20051566697231        0.78440785337611       -0.00284744452953
C            2.37188706571035        0.04023214252105        0.00414312489215
C            2.53306739745042       -1.34171185020708        0.00725461992065
C            1.57820982293095       -2.34479325159461        0.00395130378754
C            0.19341341546130       -2.24448806647926       -0.00302449499000
C           -0.57678207731015       -1.09684377459525       -0.00779064962001
N           -1.91239696923422       -1.14597149352521       -0.01074175496159
C           -2.35014069297577        0.12586491374761       -0.01290985027211
N           -3.66485952589980        0.40286869515141       -0.04777533689067
H           -3.98474697823784        1.34470767128408        0.08653264882298
H           -4.31185540827056       -0.35948899387000        0.04837123552128
C           -1.28894066307618        1.06120432323578       -0.01108154760057
C           -0.12669256422758        0.31713182730061       -0.00784023867670
H           -1.38441876611205        2.12946721667586       -0.01253593348714
H           -0.37333149666967       -3.16634257259725       -0.00560966477883
H            1.96889048635261       -3.35524816367372        0.00644035428330
H            3.56270733098744       -1.67846215738236        0.01255993943861
H            3.28699627784955        0.62180116140893        0.00792794661481
