21
 energy: -42.969689648282 gnorm: 0.000512392407 xtb: 6.6.1 (8d0f1dd)
N           -4.52270437594419       -0.77088848276458        0.00006452951755
C           -3.44501295422485       -0.38329529920647       -0.00003437452083
C           -2.13425928678573        0.15805682635424        0.00031972122250
C           -2.04070570886110        1.56225277150489        0.00302517577776
N           -1.01130471096391        2.35960279216136        0.00192936121268
C            0.29400597407519        2.10724914954361       -0.00071244870053
N            1.04208057583782        3.22613948157591       -0.00385138609591
H            2.04757782225629        3.19524032884429       -0.00518051584666
H            0.56110655189225        4.10941470571920       -0.00369193274837
C            0.97163982873390        0.84456294363830        0.00023024266106
C            2.38614767633551        0.92066162451018        0.00055626873525
N            3.52340336376266        1.07130053402717        0.00223796547573
C            0.38266568099421       -0.40849079134513       -0.00007861541310
C            1.00808746160252       -1.67373769709987       -0.00048611010961
C            2.37422485813439       -1.97706059461581        0.00024591196311
N            3.48231438126426       -2.27478365079600        0.00059878587345
C           -0.03192399154925       -2.61690069928123       -0.00226272264065
N           -1.24254299753203       -2.05998693575998       -0.00266151970929
C           -1.07160365741662       -0.74009678085366       -0.00125226431440
H            0.07551370547520       -3.68659021663200       -0.00328141805868
H           -2.98677830608649        2.09779679017560        0.00615511261895
