21
 energy: -38.176168383340 gnorm: 0.000268489122 xtb: 6.6.1 (8d0f1dd)
N           -4.20971872570733       -0.79349955946618        0.00082258823830
C           -3.06534140055868       -0.72033703726071        0.00059902509512
C           -1.65058498231150       -0.65261392510673        0.00018644858391
C           -0.98627403991217       -1.88372463189584       -0.00022557307780
N            0.29123694125377       -2.18387952965767       -0.00072673614065
C            1.35700321157217       -1.40609753358142       -0.00084463636783
N            2.52213912014847       -2.09527824491230       -0.00148603565857
H            2.46980438320343       -3.09845599480046       -0.00195856397637
H            3.41365600758706       -1.63235973819831       -0.00180795009875
C            1.43595038606507        0.02865108485543       -0.00028411669937
C            2.74314309573179        0.57097459366300       -0.00026243994233
N            3.81960826593766        0.97012724142275       -0.00057410168964
C            0.38928682272885        0.93016395152801        0.00026191218105
C            0.49949974211039        2.32900503880250        0.00074603159094
C           -0.77426839285744        2.86899769070296        0.00108342231852
C           -1.73358679646032        1.83970544457859        0.00089555918183
C           -1.07707703257758        0.62502593693404        0.00037841871969
H           -2.79890216622636        1.97293877840022        0.00108708017793
H           -1.00382764940134        3.91961717076166        0.00146390447707
H            1.42471479053387        2.87364177106780        0.00077952721538
H           -1.61874114485981       -2.76766522393736       -0.00017645982845
