20
 energy: -38.452990909487 gnorm: 0.000358531135 xtb: 6.6.1 (8d0f1dd)
N           -4.24072635623107       -0.75569309700637       -0.00005828691063
C           -3.09511890249636       -0.70860033438394       -0.00005969357713
C           -1.68015812800693       -0.65632563985188        0.00021449285351
C           -1.01214686378459       -1.88383229060345        0.00065752494989
N            0.26518931888336       -2.18262392190179        0.00091393739680
C            1.33634575671723       -1.40909528108997        0.00093034212371
N            2.49503394045748       -2.09887902667874        0.00120943554331
H            2.44327817885875       -3.10279767586945        0.00142996613346
H            3.38645398181707       -1.63386022699152        0.00135971218656
C            1.42212248362611        0.02552092575027        0.00070699907582
C            2.72568357339139        0.57881937477993        0.00091312229737
N            3.80932365707475        0.95497317338526        0.00113828253219
C            0.36895189968724        0.91602536056077        0.00023630117647
N            0.55591340486299        2.24550985040584       -0.00008119125228
C           -0.65203937303405        2.79915021670000       -0.00055942699673
C           -1.69714759045769        1.86138929031614       -0.00057035588037
C           -1.09367937921044        0.61601758044466       -0.00006309546873
H           -2.74840460992688        2.07061498582977       -0.00093362734012
H           -0.74817479951611        3.87049556320479       -0.00087189555113
H           -1.64306075191228       -2.76933244960034        0.00079475860803
