22
 energy: -37.103316267699 gnorm: 0.000513340878 xtb: 6.6.1 (8d0f1dd)
N           -4.58556380332974       -0.41190297670152       -0.01576072872445
C           -3.45293671383030       -0.22018549175479       -0.00311637600696
C           -2.06251785039084        0.01519470049346        0.00866109220563
C           -1.66151107932473        1.34274368271317        0.21708632527617
N           -0.49423543599620        1.91940750031813        0.12167300442896
C            0.70612065765430        1.36532101812447       -0.06321205763249
N            1.67178099365463        2.28474711803087       -0.31147457599748
H            1.35417190178341        3.22364831052066       -0.48865311616785
H            2.54534002267834        1.98119768265885       -0.70778690093687
C            1.06847880824940        0.01176655894826        0.05305014254191
C            0.14260635645561       -1.12981979924042       -0.06377691925115
C            0.94324331499760       -2.29226981235998       -0.11157277978724
C            2.26343166031027       -1.93229626098257        0.02096387200534
C            2.35762190693885       -0.52625322727209        0.12221731190214
N            3.55122935576680        0.17635147899039        0.23856608585534
H            4.33807395824875       -0.42521621029521        0.44209997711355
H            3.51230635243909        0.96564440376692        0.86925312810945
H            3.10634071612739       -2.60059282372136        0.03870052295111
H            0.56210285101222       -3.29201448802687       -0.20496053196948
C           -1.22615446672519       -1.10620429581633       -0.13466357400203
H           -1.72540586947374       -2.06116203538177       -0.25853908732943
H           -2.45906060294587        2.04750838808774        0.44402512621582
