21
 energy: -37.380944982818 gnorm: 0.000537513229 xtb: 6.6.1 (8d0f1dd)
N           -4.59741059002696       -0.43582494515949        0.07379543338940
C           -3.46645510098352       -0.23969040519957        0.04344848355410
C           -2.07627365733753        0.00053457010020        0.00790531841558
C           -1.68891755511717        1.34107806157627       -0.19653892008853
N           -0.53592854720638        1.93851580486588       -0.12470941181933
C            0.68118188512838        1.39991530066699        0.05078497064224
N            1.63671958223592        2.32045284030286        0.29028890856840
H            1.33304359822713        3.26709447007192        0.44762624164295
H            2.54170664639398        2.02226966978587        0.61478776576055
C            1.04100747953401        0.05190898745803       -0.06773012450802
C            0.13735078826936       -1.10438596408952        0.02875917793083
C            1.00434756150574       -2.21566809600524        0.06411377171009
N            2.27658579554371       -1.86600354940179       -0.03727273358597
C            2.32208748275308       -0.51793133496838       -0.11504704360765
N            3.53867981784606        0.13226242757496       -0.19526518908893
H            4.29406268524743       -0.53247316629826       -0.30342320917098
H            3.58139156501923        0.87278143702045       -0.88273900140671
H            0.72270044051552       -3.24973103034815        0.13634480164975
C           -1.23441276807646       -1.11421122980430        0.11336773066002
H           -1.71442067446888       -2.07976424458819        0.22778659024720
H           -2.50353643180080        2.03104008683964       -0.41096892949356
