22
 energy: -37.102912861975 gnorm: 0.000687111797 xtb: 6.6.1 (8d0f1dd)
N           -4.24444219731052       -0.87842018697611       -0.01020007514626
C           -3.16819196427825       -0.47579511173051       -0.00644773610658
C           -1.84286732120620        0.00454682189462       -0.00681391596886
C           -0.82589461089170       -0.96489694980693        0.01783818952432
C            0.52483878697724       -0.75016458793105       -0.00544545338300
C            1.52905218697672       -1.76217307700561       -0.01424663195153
C            2.77188716858971       -1.14175102913995       -0.04442275324384
C            2.59646086897455        0.24387374860946       -0.04635570723084
C            1.23788534092537        0.54433935318870       -0.02482575663377
C            0.65578182774876        1.82119694284216        0.00664643082583
N           -0.64089854650700        2.17294164851576       -0.03303912524993
C           -1.69022862183872        1.39964018210057       -0.05164895352752
H           -2.61947340068937        1.96515363805999       -0.10132322738124
N            1.45488293314101        2.90832938576962        0.06474083125434
H            2.45163685862859        2.83004623768827        0.12438258830900
H            1.01077469245500        3.80919713364316        0.08870132553527
H            3.40889652507138        0.94812751782009       -0.07385785644425
H            3.71924254560190       -1.64984078621182       -0.06146359587554
N            1.30874189386314       -3.11405179060151        0.06991156015036
H            2.07864508906226       -3.70217614652479       -0.20506765544400
H            0.40370224260272       -3.45016110961710       -0.21560759470940
H           -1.17030101619633       -1.99395825438692        0.04955629769744
