19
 energy: -33.937628777065 gnorm: 0.000595852227 xtb: 6.6.1 (8d0f1dd)
N           -4.27699281123133       -0.50080199636198       -0.05071460319210
C           -3.15028486338063       -0.28601987128175       -0.02929577966342
C           -1.76088830144550       -0.02237003573553       -0.00728947104528
C           -0.90721483892798       -1.12870737615369       -0.04435013678126
C            0.46745909890092       -1.09471144030627       -0.00431811043387
C            1.34921639948731       -2.19848302677752        0.00193494385060
N            2.61540476614696       -1.82196295841675        0.04648581625751
C            2.63699946111498       -0.47719935138873        0.05752864328450
C            1.35801319551862        0.07062650526629        0.02950134818686
C            0.98147865115046        1.42853214313662       -0.00219272093542
N           -0.25170981740770        1.95193101317857        0.06197906683526
C           -1.40040588488307        1.33690947946071        0.07984575717994
H           -2.23651071633842        2.02935784019555        0.16244873446481
N            1.93340780999120        2.37099101827096       -0.08056969230021
H            2.90610983830385        2.13078221245034       -0.14052285887507
H            1.64395040331176        3.33420264737303       -0.09901925998518
H            3.58413997570853        0.03095884441507        0.09674918401851
H            1.07891018643965       -3.23796991325335       -0.01671070895211
H           -1.37519672575964       -2.10602293947157       -0.08904899631408
