22
 energy: -37.103402284939 gnorm: 0.000383322986 xtb: 6.6.1 (8d0f1dd)
N            1.07176940420412        3.64494011006579        0.01083215629703
C            0.52265539777428        2.63631210504688        0.00467511315571
C           -0.17047627013139        1.40550583665514       -0.00426490342684
C           -1.56401237992004        1.49512266861707       -0.00875803181570
N           -2.50438084539333        0.57899637815820       -0.00476791155212
C           -2.37886406506709       -0.74186063995058       -0.01406317713422
N           -3.58636720062024       -1.38128057617424       -0.05786431388676
H           -3.64958619138787       -2.35973636949562        0.15743281261634
H           -4.40030061874844       -0.80757112808065        0.08025820866744
C           -1.22559067081866       -1.55247065444927       -0.02713161967574
C            0.09171925147733       -1.15887115292409       -0.02347570459617
C            1.20696412160858       -1.99813872930931       -0.03232696361993
C            2.36033911490335       -1.21118292661629       -0.02053103047127
N            3.63501121656363       -1.65747573624963        0.01229128795514
H            4.38809024967234       -1.00475406247791       -0.11311974730228
H            3.82442276084394       -2.63239027846637       -0.13823411475960
C            1.98526018392968        0.15861940320943       -0.00304515691425
C            0.61364209170556        0.23761215302638       -0.00686299365660
H            2.66747303312308        0.98820728746374        0.00900734699739
H            1.17991280341890       -3.07158265195215       -0.04607940804731
H           -1.40558165949046       -2.62206548014078       -0.03992811409766
H           -1.97138823774742        2.50399652494435       -0.00682650033257
