19
 energy: -33.933029881195 gnorm: 0.000719991556 xtb: 6.6.1 (8d0f1dd)
N           -3.12462446323364       -2.08985954384016       -0.01244719013055
C           -2.11630142160643       -1.54506751979862       -0.00561860372541
C           -0.84242344547848       -0.92576815470608        0.00137781895392
C            0.26251493693709       -1.78887819875085        0.00929493308331
N            1.55083611489156       -1.56414654339461        0.00916250356608
C            2.21530494494792       -0.41304460648276        0.00657262874221
N            3.56045572848952       -0.58498206614593        0.01493838429788
H            3.91414660102816       -1.52448887908344       -0.01881926132680
H            4.19441767413150        0.18982727747232       -0.03983095565620
C            1.73039708206367        0.91492828498192        0.00859610367895
C            0.42230974968224        1.32093732995448        0.00646940459861
C           -0.08641749265763        2.63284131452835        0.00561274550675
C           -1.46161519266912        2.51386735368191       -0.00102358589277
N           -1.88842817356311        1.23234544824804       -0.00451600082239
C           -0.80739066083226        0.47109065374941        0.00017810475066
H           -2.18691019946920        3.30827274952291       -0.00330209247520
H            0.48564343695748        3.53940291886053        0.00911515778602
H            2.48468337169294        1.69458879051400        0.01135330719135
H            0.02757465438778       -2.85103848411141        0.01354510927356
