18
 energy: -34.212445979653 gnorm: 0.000453174211 xtb: 6.6.1 (8d0f1dd)
N            3.29738288987632        1.95561259436132       -0.00023945286714
C            2.24074469514879        1.50965352246771        0.00003297420209
C            0.93820413805808        0.95570989447615       -0.00018177741246
C           -0.13793464888741        1.85782335386177       -0.00144696504105
N           -1.42858596051225        1.65239574832560       -0.00085922823838
C           -2.09531937481886        0.49642515935726        0.00048925913702
N           -3.43205208689290        0.63625899804237        0.00285347729920
H           -3.83418811394349        1.55639665618259        0.00310001561818
H           -4.00470781013611       -0.18898070964380        0.00310243586637
N           -1.69550126079381       -0.78104086268046       -0.00074124875875
C           -0.47658798574444       -1.21556175080353       -0.00102380896129
N           -0.20364547988175       -2.52625935454294       -0.00207437391158
C            1.11969786655074       -2.64099749085609       -0.00113682081289
C            1.80423557681861       -1.41409280825382        0.00026133702973
C            0.82900294943032       -0.43624563024197        0.00027003759283
H            2.86753369315885       -1.27425427723139        0.00102076113996
H            1.56789057427952       -3.61990667759510       -0.00149746094751
H            0.12212823158981        2.91394966047438       -0.00294276973430
