16
 energy: -28.290216412212 gnorm: 0.000665177579 xtb: 6.6.1 (8d0f1dd)
N            1.53509450307221       -0.38683751955511       -0.17168838007349
C            0.44922550273793       -0.51619074983833        0.65639532387410
C           -0.71285726072228        0.30022612872541        0.63498233149032
C           -1.68529214037159       -0.09257706833180        1.57453284032445
C           -1.19532353829387       -1.22090018691257        2.18477749460516
C           -0.88179863947413       -2.04814683506564        3.27851631093023
N           -0.87001765180741       -2.40008206418291        4.55598575192475
C            0.38893635170619       -2.85296002152564        4.71219630958867
N            1.24874203921251       -2.78392753652794        3.67322529626775
C            0.47810421674480       -2.30016424510368        2.71139211156398
C            0.18428440275819       -1.50129485225676        1.59270073517993
H            2.38476905676366       -0.82825203729393        0.14188349314718
H            1.65925829783299        0.51328506088683       -0.60625836690547
H           -0.79315801906522        1.18811021805990        0.02952341480613
H           -2.61494702602075        0.41542535811411        1.74999921757020
H            0.72552990492690       -3.20352364919169        5.67194611570593
