17
 energy: -32.004580617335 gnorm: 0.000781898050 xtb: 6.6.1 (8d0f1dd)
N            1.41097436660902       -0.34022228693672       -0.97518169244271
C            0.51894320500663        0.65522283528557       -1.19474147775567
N           -0.52253745691762        0.84647390498489       -0.35682553232907
C           -1.26794553867404        1.91921785873806       -0.69881238341569
N           -2.32246409341624        2.30069653389820        0.06099276021870
C           -0.70513125147426        2.54761998896798       -1.81139863644835
C           -0.89801101807083        2.75391871982080       -3.18332440145638
N           -1.67371757284802        2.80542865670251       -4.25651359282445
C           -0.96503212087422        2.10627391377879       -5.16205482816004
N            0.17053862818371        1.50084569502814       -4.76836830202665
C            0.29417476053244        1.91059550743668       -3.51420289096851
C            0.54025125951905        1.66667060662104       -2.15704190459679
H            1.14394680753375       -1.02812697073500       -0.29136448101894
H            1.96592322581732       -0.65151051068329       -1.75440160542891
H           -3.02453385915161        2.87858719801127       -0.36934903746743
H           -2.62726294317403        1.63949022198962        0.75527566520809
H           -1.33992639860091        1.96795812709140       -6.16029765908714
