22
 energy: -39.430753768290 gnorm: 0.000609097579 xtb: 6.6.1 (8d0f1dd)
N            1.35832887006909       -0.01204096704533       -0.08342735424657
C            0.20682160054512       -0.00740350964888       -0.05392219922072
C           -1.18538551646481       -0.00507338913780       -0.01780306892808
C           -1.95856293738315       -0.78227926091462        0.92729102624785
N           -1.40507434711642       -1.53734406573282        1.93849951045658
C           -3.26588808580013       -0.50399504132572        0.63430734872394
C           -4.69060891475807       -0.49742470638930        0.69008963254663
C           -5.99820857701831       -0.70027941250486        1.00221118422400
C           -6.70829983242413        0.13453997819089        0.05690842721911
N           -8.03601778781214        0.25656791242150       -0.01033265811341
N           -5.92518049125575        0.83419620440093       -0.80906508145125
C           -4.70173184830306        0.47437236674225       -0.45557686746893
C           -3.30633699193646        0.47124698546790       -0.52108637106580
C           -2.00321691604151        0.75990400373825       -0.90074348281361
N           -1.54736715539904        1.52392010527714       -1.94391098229922
H           -0.44415876125165       -1.81041225648596        1.79874833258248
H           -1.99496372821491       -2.26129695446820        2.31620637484411
H           -6.47028565572795       -1.30865169462391        1.74868115872269
H           -8.42966002597526        0.86630467597400       -0.70533187640714
H           -8.63627444283842       -0.24606499451226        0.61771237814001
H           -2.18458456721929        2.21646188127181       -2.30134878377010
H           -0.57908388767364        1.80144213930506       -1.90625664792254
