16
 energy: -28.299100131079 gnorm: 0.000873340251 xtb: 6.6.1 (8d0f1dd)
N            1.69908627786889       -0.50144054060607        0.09685950466095
C            0.62537758401122       -0.57973546846900        0.87956475839747
C            0.51829031926803       -1.38159948943965        2.08058696559691
C           -0.74162989200708       -1.13361922557403        2.51761603018585
C           -1.98047577957809       -1.09304963928056        3.23865582322933
C           -2.97819517344263       -1.29630054970893        4.15362518248205
N           -4.06457303593375       -0.56226997630456        3.79652807147734
C           -3.83533550554268        0.12871195955344        2.67394196906221
C           -2.54646983626740       -0.13319697630889        2.23482798664151
C           -1.32941647409645       -0.17217227749841        1.52595998384797
N           -0.49108319982841        0.13885337653870        0.56162645178988
H            2.53502788589568       -1.01786869630516        0.30438414623426
H            1.66025096949676        0.09010757600689       -0.71546285211303
H            1.30086142964340       -2.00296582297363        2.46983971946594
H           -3.01726311619970       -1.90366169323069        5.03826579576255
H           -4.60160245328776        0.75880744360051        2.26328046327878
