20
 energy: -35.186359402342 gnorm: 0.000736618327 xtb: 6.6.1 (8d0f1dd)
N           -4.58236955518867        1.24294469995846        2.35384163128678
C           -3.60563584180746        1.22748751297086        1.45147397603775
N           -2.51845075820316        0.40857986275984        1.61606365784035
C           -1.81393119946934        0.69245301337092        0.53412398903259
C           -0.77633701377824        0.66655222056202       -0.41162995265328
C            0.39526832163655        0.35790762881682       -1.07594765286221
N            1.35135334134451       -0.58800480911597       -0.76138689371136
C            0.38881431386319        1.15924316912095       -2.24527164964761
C           -0.76076465868553        1.98137033508706       -2.35504620893691
N           -0.98379301592155        2.91368720928268       -3.34945789820239
C           -1.51742761071548        1.70815642606096       -1.23163196768233
C           -2.54116594994023        1.71677585009430       -0.27059274664868
N           -3.67022712697295        2.02978599175499        0.34159212833800
H           -5.36965851444383        1.84955073127104        2.21404623275661
H           -4.51601450346428        0.64692769003053        3.15863805350980
H            1.37005044898652       -0.86392733817796        0.20808122834157
H            2.26487947235760       -0.42443495592992       -1.15641739882709
H            1.17899643738012        1.14458725756850       -2.97801876883088
H           -1.94357070753701        3.20647386566560       -3.44675408926176
H           -0.52416587944069        2.72496363884830       -4.22720566987900
