15
 energy: -24.578676332149 gnorm: 0.000662556000 xtb: 6.6.1 (8d0f1dd)
C           -0.56852768736512        1.27845915643869       -0.25692716275359
C           -0.19491751464766       -0.03945184989783        0.10317868840134
C            1.17378701596740       -0.05240978772341        0.06717942058754
C            2.51960756418953       -0.49837792348333        0.15405086366866
C            3.67769200320328       -1.21787426069227        0.32303094160802
C            4.69940421353922       -0.28085416055400        0.02982633316283
N            4.29125001109282        0.96270380775611       -0.30834182120592
C            2.97570464025432        0.87454965321039       -0.24562473188231
C            1.64374453262937        1.32542401816968       -0.33395399227795
C            0.53300785830827        2.11434639122898       -0.52394201172075
H           -1.59325876868758        1.60643092738474       -0.31961036772804
H           -0.87762413737999       -0.83214287853075        0.34598236824552
H            3.83306326820492       -2.24044534087267        0.60632595566512
H            5.75727467171043       -0.48367453869803        0.05640021409163
H            0.47617232898079        3.14677678626370       -0.81283469786214
