14
 energy: -24.853027302463 gnorm: 0.000351981200 xtb: 6.6.1 (8d0f1dd)
C           -0.50750373067887        1.33853682533422        0.41850280160593
C            0.60402610337050        2.19202479164932        0.59735086994601
C            1.70598749519838        1.40134299529108        0.39508044314692
C            3.04230669963487        0.95666155922191        0.27015842373821
N            4.36532209344570        0.96339382149730        0.24932102829292
C            4.63926315392357       -0.32502738693236       -0.05397360906614
N            3.62246871482631       -1.19628665827311       -0.23860360108576
C            2.56835765081021       -0.42118257009840       -0.04132951275724
C            1.22425364767594        0.00063409686465        0.07928060444859
C           -0.14677363674449        0.00922976051463        0.10427795524100
H           -1.52894132435803        1.66869080686129        0.51227298023857
H            0.55301869717080        3.23647495364279        0.84022380798554
H            5.65910227557609       -0.65470918740794       -0.14739104919525
H           -0.83418783985097       -0.79654380816539       -0.07081114253932
