21
 energy: -39.706355208434 gnorm: 0.000902135493 xtb: 6.6.1 (8d0f1dd)
N            1.40614347046884        0.07451111648138       -0.49434302843801
C            0.26695475752719        0.06143478667177       -0.32804949967196
C           -1.11394502573454        0.06677006678287       -0.17458516298121
C           -2.04706299729544        0.55163435291932       -1.20024793156090
N           -1.66123975589996        1.03799533665429       -2.37547819682102
N           -3.35423137627000        0.44467116578182       -0.88185750612474
C           -3.33448674451718       -0.06848811477778        0.34296881746388
C           -3.89691471132835       -0.64317028560733        1.47949634972416
C           -4.74469566494313       -1.33437111334150        2.34886202953981
N           -6.10560088662971       -1.36364861922659        2.38988828425978
N           -4.00840331317115       -1.96192051604503        3.28616529924420
C           -2.67287760606036       -1.74102715799150        3.10381139629227
N           -1.76480296108827       -2.36150964304861        3.91242239837796
C           -2.48977387187147       -0.92182482478778        2.00786274844540
C           -1.94344178926942       -0.32716577098126        0.84863252439037
H           -2.35841972567825        1.33781798296758       -3.03500047264417
H           -0.68375978757462        1.09727305071207       -2.60545214163541
H           -6.59469832667764       -1.17863532842773        1.53031185710285
H           -6.50049232916744       -2.06789726587537        2.99122532973008
H           -2.14220349814141       -2.72292969704593        4.77324671880282
H           -0.84659785667817       -1.95366952181563        3.96641018650375
