20
 energy: -35.984593592317 gnorm: 0.000831197091 xtb: 6.6.1 (8d0f1dd)
N            1.31680720545717       -0.04315059594006       -0.37007091896428
C            0.17092326633084       -0.03599595243707       -0.26427278803305
C           -1.21932557350906       -0.03502741472561       -0.18180902530269
C           -2.10040093471712       -0.08987077359411       -1.31778068659560
N           -1.67095487046523       -0.14409445665938       -2.58179686270903
C           -3.48049167290284       -0.08698964747130       -0.92133867404516
C           -3.47605925234457       -0.02500941599930        0.43762127870689
C           -3.93171562690004        0.00479298636063        1.79384516293491
C           -4.67927541742448       -0.02780229032318        2.93210449647043
N           -3.85501227500713       -0.01040690963487        4.02239095280911
C           -2.56556089886403        0.03969974496175        3.65384743493523
N           -1.56366878484559        0.14610297486347        4.57430513535488
C           -2.49115260348625        0.04869007101540        2.25276347276754
C           -2.05793031556136        0.01119277328602        0.92400789202094
H           -2.32310052405224       -0.18078676772380       -3.34531302070364
H           -0.68374446968983       -0.14277011854771       -2.77785479898340
H           -4.30492583501244       -0.12731286593810       -1.60809763186220
H           -5.74138231936104       -0.06786733724700        3.08407770206586
H           -0.64703917334997       -0.16403716828024        4.29820091383398
H           -1.83729992429433       -0.05836683596555        5.52157996529922
