18
 energy: -33.345995394355 gnorm: 0.000387383510 xtb: 6.6.1 (8d0f1dd)
N            1.32906114923599        0.00004881993249       -0.21503744804423
C            0.18214760644857       -0.00005158776181       -0.19572216751006
C           -1.21975156512955       -0.00000141653090       -0.15751843372185
C           -2.07958879797328        0.00000341857515       -1.28502460546109
C           -3.44975966282113        0.00000147503701       -0.92014869164769
C           -4.53479190901469       -0.00004310600199       -1.80867868506690
N           -5.42991474375563        0.00004191650877       -2.52599221153993
C           -3.46818158571931        0.00000520381896        0.47073232076038
C           -3.93817475978104        0.00000148075346        1.80247600200103
C           -4.75942519853094        0.00000029340544        2.90048729650584
C           -3.89312204778572        0.00000000963503        4.01790475558345
C           -2.52394772587137        0.00000043897267        3.66499637565925
C           -2.50081050141599        0.00000134910173        2.29405006437136
C           -2.05686544570828        0.00000311093065        0.95336870759665
H           -1.73106640328768       -0.00001055326315       -2.30411241643266
H           -5.83188049447806       -0.00000030632323        2.94563225797686
H           -4.24171997388482       -0.00000083408896        5.03724767686409
H           -1.70376794052704        0.00000028729869        4.35745920210546
