22
 energy: -40.240175471142 gnorm: 0.000630182846 xtb: 6.6.1 (8d0f1dd)
N            1.43073665362700       -0.14057111401079       -0.05665141396194
C            0.28140755870036       -0.10128710967901       -0.08740897729295
C           -1.11426530124210       -0.06471869282488       -0.08392891930588
C           -1.90889371634819        0.73648743684533       -0.97297572851250
C           -3.20075655273357        0.49684498345085       -0.62027309720592
C           -4.62731583694051        0.54544203493400       -0.58283521527978
C           -5.91626617221494        0.87684334813194       -0.88208371637307
C           -6.73130151433658        0.14243759192117        0.03632149455664
N           -8.06650356625313        0.18435404144139        0.08169395041946
C           -5.93290965563896       -0.66435783960702        0.92867565879692
C           -6.45487548793064       -1.47992303308671        1.93065207921543
N           -6.91510107130217       -2.14053908416915        2.75247789422321
C           -4.62173922368669       -0.42687379690814        0.55484933857141
C           -3.21863244012719       -0.48331348635121        0.52168611406331
C           -1.90737609504524       -0.81755515429676        0.83526565160197
N           -1.43131622350678       -1.72105856663014        1.74361008085645
H           -1.50318227007507        1.37395123092133       -1.73617620245209
H           -6.29970274139966        1.54026594337130       -1.63404454802855
H           -8.58499414527271        0.75734767853409       -0.56051620375587
H           -8.56509819666218       -0.36720646825854        0.75989884804836
H           -0.45030942501617       -1.67238290640182        1.96628754025170
H           -2.04465457659498       -1.99027703732765        2.49418537156347
