20
 energy: -36.784648749924 gnorm: 0.000949847427 xtb: 6.6.1 (8d0f1dd)
N            1.38801602617915       -0.14250901753871       -0.05285823156814
C            0.24058740656292       -0.07062979497583       -0.06076458931855
C           -1.15673017881401       -0.02047486308333       -0.04744310478687
C           -1.94943153963106        0.70806225396670       -1.00279877671283
C           -3.24135731233734        0.47924833528101       -0.65253987138960
C           -4.66493877504698        0.48950506336161       -0.64240430672943
C           -5.96884518889639        0.74747111893415       -0.98104702773445
C           -6.75885075931731        0.04897404529626       -0.03961541026859
C           -5.98454529491934       -0.66376037135027        0.91014691307475
C           -6.46519058273643       -1.45182168496661        1.96061499959383
N           -6.83404897742218       -2.10631966159070        2.82975001970017
C           -4.65732151668329       -0.40900394287763        0.56300689322848
C           -3.26027698410042       -0.42643718664755        0.56810159897283
C           -1.94510877798015       -0.71701114059249        0.91795759731925
N           -1.46698252902839       -1.42702168027880        1.97713524728583
H           -1.53944982982343        1.29171961855009       -1.80519351150345
H           -6.35634057937372        1.34676458525519       -1.78275660653486
H           -7.83615592035876        0.05062647032137       -0.03724214032979
H           -0.49396645688427       -1.68555309552887        1.96776996035321
H           -2.09846222938841       -2.04823905153573        2.45329034734825
