19
 energy: -32.262381232531 gnorm: 0.000598186165 xtb: 6.6.1 (8d0f1dd)
N            1.31025404051210       -0.27838710045600        0.22050354327290
C            0.16262110897958       -0.21515081406620        0.22203984840372
C           -1.23144150157770       -0.12906198354693        0.19696611751265
C           -2.10557161425638       -0.21197308046236        1.32187390393806
C           -3.45755068775284       -0.08093395596040        0.97317564093518
C           -3.47939657314055        0.08959693545349       -0.39768212409684
C           -3.94589950463864        0.29352761305999       -1.71476245523546
C           -4.75969262469370        0.50967321028962       -2.79462855372389
C           -3.89927836131496        0.60712033495170       -3.91395155604464
C           -2.52638122553358        0.45980759232757       -3.58437770798326
N           -1.48301953911001        0.43184530896721       -4.48066048735730
C           -2.50802203971884        0.26085717400203       -2.21523347027127
C           -2.06557141731086        0.05886702855620       -0.89775886442584
H           -1.74921051201346       -0.35666933545424        2.32837825998090
H           -4.27968928142893       -0.11183175757892        1.66296838475465
H           -5.82965194178035        0.59514303767452       -2.83358119251332
H           -4.24647318136949        0.77928960394528       -4.91957724549348
H           -0.56552560608134        0.58118278894427       -4.09278153562890
H           -1.64457953777007        0.88863739935314       -5.36375050602389
