18
 energy: -32.535645650942 gnorm: 0.000794756923 xtb: 6.6.1 (8d0f1dd)
N            1.40425809402053        0.13927589187725       -0.36785802333531
C            0.26213315033303        0.05640188971947       -0.28405570322115
C           -1.12748976223487       -0.03838949930631       -0.17360027185889
C           -2.03326776768513       -0.42083400513934       -1.21591790377119
N           -3.33234000363031       -0.43856654619911       -0.88890791657992
C           -3.33763924083571       -0.07176382255497        0.38812816440230
C           -3.91212421943048        0.25489313479797        1.62167120849770
C           -4.82321721238473        0.51711526753227        2.63364168801451
N           -6.18170423907296        0.33933759326893        2.63826460823298
C           -4.03422329562019        0.93259581024884        3.73616886856191
C           -2.64372743704586        0.94845606469963        3.46151003011717
C           -2.51368381142302        0.53587885490973        2.16583787056574
C           -1.96211561625484        0.19902830357798        0.90954146542143
H           -1.73753712144015       -0.68247337046531       -2.21791837649839
H           -6.70079189663448        0.83081827633234        3.34728226311578
H           -6.62913879981740        0.28250010293336        1.73831299979468
H           -4.45477273340527        1.21400035387108        4.68743336987201
H           -1.88290808743799        1.23568569989613        4.16284565866867
