21
 energy: -34.893784789394 gnorm: 0.000761020862 xtb: 6.6.1 (8d0f1dd)
N           -1.01919095899437        2.74085286365443       -6.74148780311535
C           -0.90338892453703        2.37821496486316       -5.45142998333103
C            0.12430985297458        1.51516084119388       -4.95657050563128
C           -0.10940097457256        1.40887849477279       -3.61434013809453
C            0.00998750144060        1.01832396976459       -2.26211097923321
C            0.41002627904552        0.45456646197042       -1.06411739778161
N            1.41432044217419       -0.45432217013700       -0.79767373028653
N           -0.41702961978667        0.87103691266646       -0.07178192546147
C           -1.38718185971308        1.68729440481070       -0.55627263696172
N           -2.38560881084954        2.15206783646799        0.27607210642729
C           -1.20898789564683        1.85448083176103       -1.91764640122578
C           -1.32177572156334        2.24036603648690       -3.27177933070905
C           -1.78477542550078        2.82460658704053       -4.41711707462092
H           -1.80729239670244        3.28457962757793       -7.04486377821936
H           -0.42007053187904        2.33307018907068       -7.43686501435118
H            0.88931383236051        1.06744579756238       -5.56333229297781
H            1.61820197778805       -0.53254568386231        0.18728701240000
H            2.23206938264521       -0.37271071978126       -1.38206921897813
H           -2.76366385941836        3.05383591738207        0.02954658647848
H           -2.15492050183060        2.05546379724856        1.25345864083559
H           -2.62402178743376        3.47726303948638       -4.57055613516248
