26
 energy: -43.164541919361 gnorm: 0.000452787183 xtb: 6.6.1 (8d0f1dd)
N           -4.49999744953700       -1.25626682698208       -1.72110637357722
C           -3.62998006073090       -0.73585728282433       -1.18201551020714
C           -2.55705056504926       -0.10524378277280       -0.51594852838090
C           -1.63986718482042       -0.98343855009238        0.15932224393846
C           -0.36909804928364       -0.72084943918149        0.52180035368741
C            0.38254403557648       -1.72086784327715        1.29238958606953
C            1.61919218258845       -2.16445409636199        1.02974114661457
C            2.49884731956352       -1.70108313058889       -0.00402945913941
C            2.48849260720915       -0.45477099173697       -0.54270864720924
C            3.51536661604056       -0.11789376589417       -1.45839248063504
N            4.34951536856131        0.16760358524291       -2.19165827447270
C            1.60034341062359        0.62949798550586       -0.19465903138657
C            0.33984078243266        0.53132538198981        0.27555622928482
C           -0.37824915839040        1.76130580156088        0.65655016658211
N            0.35816037147393        2.66185723402517        1.37329211869342
H            1.23613099755951        2.36895847093763        1.76507914014433
H           -0.11707634665975        3.42333445275587        1.82706570364449
C           -1.64032518945555        2.07454238839261        0.24822032803966
C           -2.55039345048946        1.26050005861040       -0.46344216976927
H           -3.37984619123983        1.77553091885891       -0.93205115859650
H           -1.97807112881456        3.08190426032454        0.45978416650367
H            1.99022093138976        1.61978281685434       -0.39767824538303
H            3.28709836271352       -2.37910500606444       -0.30507561355017
H            2.01013642561915       -2.97353612069084        1.63434819030157
H           -0.15925568890457       -2.15934401237141        2.12218355733797
H           -2.01804297547710       -1.97977597702115        0.35711027466452
