25
 energy: -46.692907055835 gnorm: 0.000230956887 xtb: 6.6.1 (8d0f1dd)
N            4.75532419843828        0.40467110786213        0.23024398945091
C            3.61186827184212        0.27909707764155        0.15707996301112
C            2.22552867511470        0.12867281686136        0.07279274476837
C            1.62603863570820       -1.05140143300931        0.58512688754667
N            0.45629993537078       -1.52831693655687        0.20197164408384
C           -0.61165913663666       -0.91055226485892       -0.23791991162661
C           -1.58017821261990       -1.55369408037748       -1.01502257907709
C           -2.87781413877705       -1.09727809309520       -1.20288648851399
N           -3.58241204809448       -0.24636877413426       -0.49073364575699
C           -3.08134777931329        0.50654558359772        0.49559607024637
N           -1.87206547987421        1.02977338518266        0.57472857859186
C           -0.78742682816161        0.54444862412375        0.01825476784477
N            0.16922829819275        1.35569698455930       -0.35651357133121
C            1.45476540807280        1.14374982229251       -0.55479455296683
N            2.08299331956627        2.04918678318869       -1.33946235657479
H            1.56168791591304        2.85730303480026       -1.63183693926944
H            3.08811990262396        2.08260607904507       -1.35135777559613
N           -3.97209355780616        0.89848623927965        1.43076390995339
H           -3.70790825532165        1.63194231392189        2.06446579137895
H           -4.94468708316107        0.71387077601000        1.25913199061061
H           -3.46755867103281       -1.58622714555830       -1.97353643217502
H           -1.27920317164349       -2.46078954360299       -1.52128205706003
N            2.33972982172374       -1.84066613784514        1.42243903873154
H            3.32005271783629       -1.65922382681736        1.55574855139238
H            1.98123955884195       -2.75744253880955        1.62560715703800
