26
 energy: -47.974071127345 gnorm: 0.000520928392 xtb: 6.6.1 (8d0f1dd)
N           -4.86348364752633       -1.93800559623079        0.47572119273378
C           -3.81127011158245       -1.48786042884352        0.39447472309591
C           -2.52147612912052       -0.92476480391458        0.30349168517394
C           -2.36958847839906        0.25460858375861       -0.46812200476721
C           -1.30509113424459        1.11890615989596       -0.46112826525192
C           -1.42663390044974        2.27670050081863       -1.26475148344484
N           -1.52405974533170        3.22517237727413       -1.90340212307213
C           -0.00890753815096        1.00189147113554        0.19021814750238
C            0.68727322249100        2.10138412380032        0.58487469485540
C            2.05589850161072        2.16036530038913        0.95052645168090
C            3.04563869922779        1.29715276363637        0.61455105924574
C            2.94849657725160        0.07715823767169       -0.13296409270577
N            4.10189772426643       -0.39371278128506       -0.65121017265535
H            4.96915907737084        0.08658451145866       -0.49119744138316
H            4.11631701481832       -1.27395892984913       -1.13933394762380
C            1.79113932486630       -0.68389622497159       -0.27541870708921
C            1.89954134450148       -1.94150912758515       -0.90069336398512
N            2.01170731210147       -2.95240064712263       -1.43543429647024
C            0.49324091955970       -0.37390647168643        0.25735662465570
N           -0.20604941010091       -1.33465409839189        0.75444511276786
C           -1.48173742415752       -1.51811253835394        1.00351184195384
H           -1.69239759483831       -2.29570437912393        1.72822581839444
H            4.05802059352169        1.57671560684632        0.87801018701837
H            2.35504657855193        3.06219874352260        1.46880080643468
H            0.15012587892251        3.04049368576915        0.62690453179727
H           -3.23162547316012        0.55673522088340       -1.05224323206035
