24
 energy: -43.735033028975 gnorm: 0.000927314360 xtb: 6.6.1 (8d0f1dd)
N           -4.79927385332573       -0.45486575070516        1.06699868117026
C           -3.68272167796287       -0.39765261699928        0.79746479064816
C           -2.33134534684531       -0.26899637940650        0.44293469308401
C           -1.97658004270776        0.83347129774248       -0.44662797116640
N           -0.81908337918279        1.40212765266995       -0.47124841522937
C            0.37011075365519        1.07806651900044        0.03317324323291
C            1.15614777622280        2.10428831675352        0.54503285356961
C            2.50421508133487        2.02711003695416        0.89806724724667
N            3.42607832473067        1.22577695846793        0.43722385571165
C            3.24313848077044        0.15500472459516       -0.31884781612709
C            2.12154218475135       -0.64364898329794       -0.43299500767855
C            2.27821506794874       -1.89184206979613       -1.06886982422178
N            2.40188221910575       -2.90308549561368       -1.59921693737014
C            0.78852991162573       -0.32130660407216        0.01846185902090
C           -0.07044345404812       -1.33102477146166        0.39648074562160
C           -1.42526975158358       -1.25157236456222        0.76171139671684
H           -1.82010447856369       -2.11304214332803        1.28783513824578
H            0.37455138421059       -2.31317761197643        0.49813892948747
H            4.15161979227788       -0.19035662722588       -0.80384088776029
H            2.89247317055767        2.80175550491172        1.55259115755640
H            0.63985535908667        3.03620688722136        0.73351819075399
N           -2.93452467791973        1.30300911075594       -1.26188310964540
H           -2.72206751919824        2.06720382148603       -1.87909347755672
H           -3.87874748284446        0.96469225308635       -1.19024209830951
