28
 energy: -50.609603649578 gnorm: 0.000662190200 xtb: 6.6.1 (8d0f1dd)
N            5.04825814773911        1.31794902208501       -0.73099822936405
C            4.05086687084077        0.88682765664800       -0.35657129328221
C            2.83736037560842        0.34504830840171        0.10546744593352
C            1.66844223086498        0.73747377379929       -0.47129007870602
C            0.35675392880976        0.26895681145667       -0.10589719417381
C           -0.73149277145890        1.11348576210467       -0.15911750955614
N           -0.54879211470440        2.44797112172405       -0.44598893017558
H            0.35534502364226        2.85418921922520       -0.27842683526707
H           -1.33194614400233        3.05642765634404       -0.26765675682048
C           -2.08871467192688        0.72957647950253        0.14501836113600
C           -2.96523904920627        1.75062237113664        0.54031590180218
N           -3.69527601552815        2.58185857520070        0.86299664704676
C           -2.62247738069912       -0.55347985721453        0.05934276569616
N           -2.04489617382905       -1.59189976258175       -0.57826072282197
C           -0.78765278116043       -1.84869676175959       -0.63761508236503
N           -0.36771303766990       -2.80102273718586       -1.48784580461879
H            0.59502947975419       -3.08364374550389       -1.50434673944856
H           -1.03577774211230       -3.25540438450210       -2.08667816703996
C            0.26998907176901       -1.17509176622000        0.15766762155505
C            1.13566951364740       -1.90241056688396        0.87881925390375
N            2.16795171491184       -1.43763457005481        1.66655479614891
C            2.91537112551670       -0.47749245898919        1.32168715904086
H            3.72215112175718       -0.22582444893006        2.00444889488565
H            1.00035331760730       -2.97410946311738        0.96958110127631
N           -3.86962924234271       -0.81361848699652        0.52654604605485
H           -4.46451769327995       -0.04826139632013        0.79523134262253
H           -4.29114661308771       -1.68737226094118        0.26545567456239
H            1.72709146073785        1.48306031207141       -1.26089181582401
