30
 energy: -54.869903555618 gnorm: 0.000478463820 xtb: 6.6.1 (8d0f1dd)
N            1.21389868716151        3.31977796327233        1.47104112106073
C            1.40720887162113        2.28075206892804        1.02153392274618
C            1.68304414480717        0.96773653647624        0.57543677210076
C            2.97755579023863        0.50550974982179        0.94038429966661
C            3.63283508495615       -0.59045784699299        0.48156662474387
C            3.06375484802236       -1.48901305850141       -0.48352062269907
N            1.80263996340119       -1.75623335617417       -0.61081260150604
C            0.69956116110285       -1.18798265343238       -0.12048743592671
C           -0.34661626881704       -2.02721942925062        0.19821501274147
C           -1.69178896814121       -1.73137415658746        0.47184094964855
C           -2.37551979492023       -0.55213350465296        0.10826431307558
C           -3.76584287757773       -0.55615466260420        0.30859730868686
N           -4.90532233883440       -0.56938710803292        0.47921211813145
C           -1.84338045126983        0.60986283787692       -0.51691738890922
C           -0.48914019082134        0.98474120387047       -0.52722064811836
C           -0.19677049799721        2.23892143159688       -1.09864181670707
N            0.01245956069935        3.22301955487581       -1.65719725060499
C            0.63070026265260        0.26717055056164       -0.02024568404354
N           -2.73386795742292        1.46261803547963       -1.07502970183859
H           -2.42026973478829        2.36145410221521       -1.40254684204917
H           -3.72051692067472        1.30879146509305       -0.95163728278509
N           -2.42084650815603       -2.72045807494899        1.04101405177178
H           -1.99569225543257       -3.60769595761682        1.23916470468792
H           -3.41320999396306       -2.61578118010679        1.16662326392709
H           -0.07661792573604       -3.07387112927468        0.26421246556023
N            3.91434657077462       -2.19799660649035       -1.26272272336519
H            4.89111156486943       -1.97014295471734       -1.28479396981453
H            3.52778971473476       -2.76073265220435       -2.00007225464685
H            4.66379747509488       -0.74913589094704        0.76183118543069
H            3.52221375671567        1.17366906086869        1.59714179323560
