23
 energy: -39.210535387537 gnorm: 0.000571027206 xtb: 6.6.1 (8d0f1dd)
N           -1.76378952830197       -2.99781476236922       -0.65095358137964
C           -1.45497595435703       -1.90898017271014       -0.44081028386274
C           -1.12291616246275       -0.56223369586038       -0.20099570517027
C            0.24853361753407       -0.29826339657057        0.02038330471344
C            0.85135944089412        1.01436126213655       -0.16782085587435
N            2.01319124403937        1.05561464679695       -0.81409909690889
C            3.06642438350195        0.31862334525119       -0.78392649488557
N            3.40239317449192       -0.60376016308482        0.11430675628633
C            2.46102549283588       -1.31363014218923        0.70413917674581
C            1.07993700638195       -1.31608455175392        0.51686886966623
H            0.56098908452813       -2.18264215604879        0.90894321930192
H            2.85887060344251       -2.08894126543590        1.35274967946544
H            3.81530418611094        0.52826244999413       -1.54238061051414
C            0.27828069649038        2.21289874910339        0.24029999756396
C           -1.05610383172109        2.46492162333900        0.52577956373782
C           -2.16037016988523        1.67135884669033        0.30700654556851
C           -2.21380069888219        0.33995838443307       -0.14481896461384
N           -3.43567806788963       -0.14626730719387       -0.46232178530723
H           -4.25468027009086        0.41931021363300       -0.32925147329408
H           -3.54933418106213       -1.11544023652776       -0.70815386585879
H           -3.12634049664767        2.13293333074651        0.47001563447892
H           -1.27058810968371        3.46659323850937        0.87770267985588
H            0.95894791408749        3.05244403351538        0.28257331081574
