25
 energy: -37.836298032865 gnorm: 0.000711381440 xtb: 6.6.1 (8d0f1dd)
N            4.21966377036344        0.21105114273329       -0.85312472493210
C            2.96750098556195        0.00389082936342       -0.29998046371881
C            2.46437795905768        1.09977432829528        0.50670491265684
C            1.19209683929304        1.40798332395231        0.77708892655013
C           -0.01782529145671        0.73211299512129        0.31513539962594
C           -1.09153949066114        1.48910206233830       -0.00699220275500
N           -2.29535444221029        1.12350908631727       -0.53534088415306
C           -2.89709007345377        0.01657574318109       -0.29512306038570
C           -2.48118148024250       -1.03382350428527        0.63602525997749
C           -1.21415989584244       -1.35451598471401        0.90830272791321
C           -0.01304488307019       -0.73319354914752        0.34352507013924
C            1.02184760144668       -1.52762986753527       -0.00638419704945
C            2.31217115288016       -1.16535194256477       -0.50338617212074
H            2.84276674966026       -1.94631863479514       -1.03592643705542
H            0.85009408744122       -2.59750094754499        0.05142200689922
H           -1.03017713294785       -2.17331859421342        1.59724229210324
H           -3.28651116208277       -1.59175182829737        1.09815882815248
N           -4.13359739445092       -0.16132821912292       -0.86235577063294
H           -4.48317725416708       -1.09959791286282       -0.95582077112132
H           -4.36369547892485        0.48150540003321       -1.60210847296457
H           -0.97909514775882        2.56858490788248        0.02193389963886
H            1.01020688170957        2.28401713320165        1.39054370499258
H            3.23461375679665        1.75212319425539        0.90437448246347
H            4.69927514813380       -0.60636759103667       -1.19367626222417
H            4.81217142392368        0.88645857694480       -0.39873161899907
