27
 energy: -45.297220795009 gnorm: 0.000775720309 xtb: 6.6.1 (8d0f1dd)
N           -3.63872889879502       -0.07185491155253       -1.16770334924341
C           -2.46490247784774       -0.16257367663566       -0.47727037973745
N           -1.78795617535336       -1.26083393672513       -0.59718763952023
C           -0.52119396681653       -1.44621267234613       -0.13474267734876
N           -0.21553094503940       -2.80852607976912        0.06055119127922
H            0.67556104622969       -3.07965297990197       -0.33631695942285
H           -0.96472696464095       -3.37874318264492       -0.31081487485832
C            0.42906010536723       -0.49089766840893        0.06976200338537
C            1.78510884838650       -0.81736692280262        0.55345057521529
C            2.90730668459064       -0.33978844120560       -0.04748223597362
C            2.94056536309584        0.61872916636622       -1.11029992844261
N            2.13381805884551        1.57992806526687       -1.37455584044136
C            0.99461526446167        1.82983694598474       -0.66371350384590
C            0.18234506162799        0.94051390671223       -0.06312037589868
C           -1.06084990827892        1.33329915222474        0.64193265773938
N           -2.23154692646375        0.88479228717986        0.35783426271992
N           -0.91826981281283        2.19011131216461        1.67230956667396
H           -0.04053087059565        2.65377314194092        1.82118414025358
H           -1.72569382516128        2.45710166531972        2.20830988812919
H            0.70607164615625        2.87595287155289       -0.69481944604939
H            3.82499090849168        0.59293948844260       -1.74340287046969
H            3.86649675577574       -0.72593714561076        0.27833746788936
N            1.83786409745908       -1.60968239150707        1.66367840191954
H            1.03683194000595       -2.19308380101689        1.84624254263127
H            2.73527467056209       -1.95106019204502        1.96668309111843
H           -4.30317344170031        0.60715803054481       -0.83924238516619
H           -3.99525749085075       -0.92896819022898       -1.55406384483600
