32
 energy: -52.689494215778 gnorm: 0.000472274359 xtb: 6.6.1 (8d0f1dd)
N           -3.86761184165577       -2.21995285371833       -1.54480034010321
C           -3.10296711276925       -1.52009331394547       -1.04008662822354
C           -2.19685829630799       -0.66183037792111       -0.40199817251829
C           -2.59321836068782        0.64214938460836       -0.17204479195224
N           -3.79971629161852        1.07393348810436       -0.66074813498127
H           -4.43555537186169        0.37991634256405       -1.01966073835792
H           -4.20938131233396        1.89926941943281       -0.25903857787305
C           -1.86002116580979        1.59497880377779        0.60442396557413
C           -0.52063224219528        1.64361615971118        0.81663601282749
N            0.01373480419897        2.54083882382654        1.70244389198115
H            0.98759357608242        2.76614581570285        1.57509370188348
H           -0.57827159169647        3.28060530485712        2.04404070768207
C            0.46041158298369        0.73986421899423        0.19425915859132
C            1.57275085805998        1.23339067419732       -0.41137824327282
N            2.58277015771916        0.53588974780273       -1.00803912763388
C            3.01533764177767       -0.62289549357308       -0.63101556681337
N            4.13953040426457       -1.07369836463163       -1.27407296358136
H            4.38212137511141       -0.57748178677776       -2.11575737240000
H            4.32658964471750       -2.06170585396338       -1.26432300110300
C            2.55957019539988       -1.43652634750489        0.46698928768866
C            1.29009689057688       -1.47401254642394        0.93545277119055
N            0.93601158571149       -2.32539885322218        1.94597097189425
H            0.03393088847424       -2.20077169122131        2.37143751867786
H            1.66222718671033       -2.72334239632994        2.51750922615903
C            0.18745847630461       -0.68965192684470        0.35163833542569
C           -0.98926687495479       -1.28325114360771        0.08472845232724
H           -1.05219802901062       -2.35995523735056        0.19529429472215
H            3.29205264427491       -2.10806159601893        0.89735694805723
N            1.75961610493756        2.62513636288860       -0.53812449355244
H            2.52834408480907        2.80800313589916       -1.17011043732507
H            0.92548265404348        3.12213554434817       -0.82376918099909
H           -2.45948904515536        2.38361995094109        1.04797389401133
