23
 energy: -44.021131060335 gnorm: 0.000446595716 xtb: 6.6.1 (8d0f1dd)
N           -5.68562437095376       -0.15636158145260       -0.28104814321440
C           -4.54499889658070       -0.09287658202842       -0.17161522067015
C           -3.14585407613106       -0.02126571097249       -0.03584732222024
C           -2.39589929512718        0.76422380337503       -0.92208786262768
N           -1.18839907414597        1.20156036705823       -0.69425971836289
C           -0.22551684366485        0.81058355871287        0.08417137637976
N            0.66754611410027        1.62605883895256        0.58845768516194
C            1.93600136375140        1.35595030832004        0.75868257688493
C            2.67605048417985        0.31101145597407        0.20490646770726
C            4.07668018891807        0.46257340484358        0.21843994597295
N            5.22163766074384        0.56316315210714        0.21923649320433
C            2.17366357277911       -0.93556843274148       -0.29429553959562
C            0.87344840097774       -1.41644508066048       -0.09039545910485
C           -0.20772468554277       -0.66645168120089        0.33529830272664
N           -1.25936391294977       -1.13051027006707        0.95901248906531
C           -2.50750970449248       -0.77191096560265        0.97412053941577
H           -3.10050757354904       -1.20718685670027        1.77014248494822
H            0.70829940281497       -2.47252709844323       -0.25999641918561
N            3.06763971569739       -1.76945929126704       -0.86250546538877
H            2.79929359595343       -2.70454330614929       -1.11422301771659
H            4.04131436760428       -1.51622286014175       -0.90535975844482
H            2.48365292841446        2.12214096376663        1.29704916738971
H           -2.85758876939960        1.14581323031799       -1.82556429582828
