23
 energy: -40.005295533907 gnorm: 0.000478824254 xtb: 6.6.1 (8d0f1dd)
N            0.63434911255255        2.67749573987634       -1.98544351066692
C            0.86335973175209        1.81140860857605       -1.26884991275788
C            1.15584893442568        0.71703783394486       -0.42168725036985
C            2.47578638588284        0.42695956458641       -0.18994910921675
C            2.98426463691227       -0.62840788826719        0.59764302654033
C            2.25673976448893       -1.72668341844682        0.96417190132522
N            1.12228762292954       -2.12295741015491        0.38727455250130
C            0.15070918009434       -1.47327515939922       -0.12483014795936
C           -0.82322885748943       -2.17490613033729       -0.94089892358479
C           -2.15820465375909       -2.03165077583390       -0.84975504811379
C           -2.89111528668308       -1.16381357708445        0.02244917798055
C           -2.45422034657636       -0.02690617736550        0.60751332451316
C           -1.16958977443298        0.58901894131739        0.42631999858450
C           -1.10691799013646        1.96319952504086        0.76699682527911
N           -1.07348268877951        3.05978081892403        1.10033208287232
C           -0.01574794476395       -0.02435129403217        0.02387175562325
H           -3.15953162177248        0.55469210429920        1.18769502434817
H           -3.92885443022060       -1.43110347099884        0.17102601065243
H           -2.76951477363835       -2.68130631887143       -1.46364607786369
H           -0.41011641995567       -2.91525033570753       -1.61258282461255
H            2.66856546205423       -2.45379188322718        1.65290276779934
H            4.01716373889031       -0.56352885113944        0.90614470181646
H            3.19528037172571        1.13107504570076       -0.58999232579068
