24
 energy: -43.734650154269 gnorm: 0.000772590838 xtb: 6.6.1 (8d0f1dd)
N           -5.10730621189031       -1.03382606854713       -0.71961395116285
C           -4.03138158351161       -0.73335169322474       -0.45411733338324
C           -2.70033114841456       -0.40637575777941       -0.13678772609904
C           -2.09002996321743        0.67174078551452       -0.75067152528530
C           -0.82280037538622        1.20539260433960       -0.48025447476402
C            0.26938686597003        0.60169861499855        0.11291864324694
C            0.23213038470577       -0.81313144503088        0.47735388429307
N           -0.84499521818682       -1.21535744059168        1.18347979324849
C           -2.09212566540090       -1.06742962499983        0.97993360963618
H           -2.74803340357070       -1.47482604322530        1.74322161371573
C            1.23112301148117       -1.71344112931924        0.22848422032023
C            2.53179958821598       -1.40574708742420       -0.26354058481518
N            3.21504162818939       -0.29431499254445       -0.06189006544651
C            2.75432511093790        0.85804852626707        0.38349498096369
C            1.46182645533858        1.35543188096349        0.38817246502867
C            1.30069984452393        2.72867495743887        0.65943629136236
N            1.16828225101076        3.84647992448023        0.88805059214404
H            3.54473791077212        1.54641234735434        0.66976703878912
N            3.21920480131337       -2.38427958742148       -0.88151581132069
H            4.17356319034245       -2.20600163319488       -1.14270541292950
H            2.83220890478171       -3.30303022249316       -0.99705339450311
H            1.00308655988106       -2.75574195293273        0.40765995318143
H           -0.65105918101943        2.20620725862842       -0.85769023542802
H           -2.70054918636660        1.23591450174382       -1.44600916529239
