27
 energy: -52.480106991582 gnorm: 0.000636038367 xtb: 6.6.1 (8d0f1dd)
N           -3.96635715337462       -1.23670076596993       -0.88640477884695
C           -2.83672497230199       -1.17499725547291       -0.70408073748385
C           -1.42547391394401       -1.12564736953297       -0.56970025633637
C           -0.74470744469707       -2.28260406856234       -1.08291494042244
C            0.48342902866097       -2.71726853754000       -0.74393526910677
C            1.40655896707141       -2.09788842259178        0.17434858676197
N            2.33091664913927       -2.91102084825550        0.72093047090320
H            2.36031231553431       -3.88628526762512        0.48308256220783
H            3.03607688913968       -2.53779648370167        1.33523101263602
C            1.44599134829380       -0.73823362172240        0.44899210870823
C            2.46015340972941       -0.28113177556326        1.31711316722995
N            3.25703601232672        0.04552211103998        2.07698815893080
C            0.56313060434628        0.29012766888581       -0.05461358761313
C            1.09151852898031        1.50723473529019       -0.44724376851227
C            2.48722041386187        1.59754629729940       -0.65695081590142
N            3.60422836102484        1.69012828908320       -0.90011616482690
C            0.33140362565272        2.65459607905064       -0.85876392918104
N           -0.80532033808919        3.03730848240006       -0.40581415027689
C           -1.56593049391306        2.37398796079047        0.47691335474321
C           -1.70264923240562        1.02188189423138        0.59216816089802
C           -2.65729532934880        0.50352700970231        1.49539069785823
N           -3.38395057210568        0.08088430904592        2.27576737860034
C           -0.86562761527080        0.02089153584355       -0.07657776851038
H           -2.21303031589981        3.01524217384289        1.06451043257464
H            0.80082607839791        3.32146485181004       -1.57482990981955
H            0.80985585345705       -3.66993438417056       -1.14005908123407
H           -1.34051316876570       -2.90508676170708       -1.73827847908059
