27
 energy: -46.891189875842 gnorm: 0.000934743647 xtb: 6.6.1 (8d0f1dd)
N           -4.08794014552140       -2.52587013728483        1.14566606990893
C           -3.20937973332176       -1.89297295868410        0.76454125439211
C           -2.12839310172396       -1.10580675455180        0.30618476082991
C           -2.50800504835178        0.07481072773844       -0.44503580723895
C           -1.73849872576451        1.16082904045121       -0.66907385464877
C           -2.28532003752617        2.23572736513020       -1.40688819706453
N           -2.71459076622818        3.12262971004751       -1.99480647604817
C           -0.40980527385454        1.39555729911506       -0.11265277686153
C            0.49486959076592        0.46120090987054        0.20629345486238
C            1.76113136809790        0.87827990249160        0.87593831200785
N            2.94943592594649        0.63664352515496        0.46524513500672
C            3.32146930151470       -0.25516629568853       -0.48482122739018
N            4.49392863001095        0.06409864076318       -1.11321947621391
H            5.00448992095961       -0.67338309491427       -1.56719327395837
H            5.03484154677071        0.80527705916484       -0.70086108277714
C            2.69379861339117       -1.45991396954427       -0.71180197983741
C            1.40984211495220       -1.81521023388878       -0.26289155467580
C            0.37679337903252       -0.99140083808373        0.10618452911717
C           -0.87255257226295       -1.58454176650853        0.51532674505643
H           -0.79817796222781       -2.55585992135964        0.99545501374240
H            1.17100348718001       -2.87037025206735       -0.32427356116174
H            3.24627648784906       -2.21058569028065       -1.26011417117084
N            1.60475665794629        1.59412994380742        2.00846162182462
H            0.69040092462701        1.83328778201410        2.34571237414774
H            2.41521606760390        1.83114449523812        2.55356932749148
H           -0.15537148194757        2.43930037796231        0.02849318207738
H           -3.51962787121553        0.06816570471292       -0.83341934871910
