30
 energy: -54.059743270300 gnorm: 0.000679196259 xtb: 6.6.1 (8d0f1dd)
N           -2.94360486816443       -3.11049259822475        1.87232195897772
C           -2.39214688724298       -2.25966248220816        1.33117611610302
C           -1.68033054980539       -1.24172772198895        0.66532130414207
C           -2.27900346082849       -0.02874173944383        0.52966010945482
C           -1.78008973315058        1.12551994673230       -0.15023509340192
C           -2.74997948791067        2.05582450286566       -0.57194904242253
N           -3.51536687941104        2.83883904571717       -0.92325212096831
C           -0.45244041878732        1.46287545541418       -0.35247467284366
N           -0.11627290646412        2.55432994009101       -1.07041817663265
H           -0.83547068726915        3.15799736418747       -1.43599083011697
H            0.83380133024187        2.88424220980838       -1.03737276534201
C            0.64808253380642        0.66835264201359        0.19738016493553
C            1.70828544646675        1.24840065917209        0.84679093675094
N            2.76924607113784        0.59762591576276        1.40162572601285
C            3.25372385506496       -0.51461165175593        0.97081469578750
N            3.01734468257302       -1.13104231416373       -0.19529480176711
C            1.88155038244140       -1.11623114909610       -0.80066835017058
N            1.80149843445182       -1.39124795992919       -2.11455474750563
H            2.64539246473062       -1.57375996332249       -2.63093336891912
H            0.91146697060504       -1.60598474491968       -2.52803352962145
C            0.60931739969375       -0.75903010195161       -0.11075557328750
C           -0.39707634825240       -1.63276960528616        0.08253756527465
N           -0.29522429809970       -2.95608019413612       -0.34194749417090
H           -0.94513058700832       -3.58842937757547        0.10322219190602
H            0.64569987056228       -3.32068229268110       -0.37701882128318
H            4.07353322041983       -0.93206211799528        1.54483308462817
N            1.75285623042227        2.62778264064624        1.07230357171050
H            2.49390175666662        2.85276016477954        1.72267771050707
H            0.87415715287098        3.04883102013292        1.34168165655572
H           -3.28730026856451        0.06944871966174        0.91639603010869
