28
 energy: -45.815491026591 gnorm: 0.000312712811 xtb: 6.6.1 (8d0f1dd)
N            0.06938544210310       -3.39163311014843        1.29710460478195
C           -0.26759386597185       -2.37679266474223        0.86469548627483
C           -0.71723217440267       -1.14476602765753        0.36671059022659
C           -2.08751046043205       -1.04163714307208        0.13507476158588
C           -2.77204567384135        0.08423200208904       -0.37470545877375
C           -2.33574022569157        1.38523677693310       -0.40539321641377
C           -1.08867403342771        1.87304440457537        0.07926088920089
C            0.09554125174441        1.23320733716198        0.31001306894067
C            1.15334721571741        2.02510664447857        0.89432325897127
C            2.49795870394743        1.88460190946626        0.79351437321129
N            3.24489962390910        1.06482705987085        0.03664488642268
C            2.80214436673197       -0.04549568696813       -0.49123771294339
N            3.68430133915110       -0.68979052388894       -1.30056540024239
H            3.53446066416776       -1.65316147020260       -1.54171347963132
H            4.62186865069378       -0.32736385898575       -1.33088655542026
C            1.54827063448129       -0.70346368414149       -0.27924209661782
C            0.33889151257209       -0.18492812798700        0.09598912221825
H            1.56687697560387       -1.76646225169797       -0.49230767209273
H            3.11256352227480        2.60145511496675        1.33102051108445
H            0.80428181171157        2.87059143240174        1.47549528175576
H           -1.07463238883283        2.94623563695132        0.23592690988878
N           -3.21887020990366        2.35222280361460       -0.81085383856480
H           -2.85863134229189        3.26451215708267       -1.03071572910604
H           -4.04513331292539        2.06551673888536       -1.30679455381172
H           -3.79215863149931       -0.09692536039625       -0.69194505482412
N           -2.84880901330266       -2.16178533566112        0.30957010487869
H           -3.84907390381957       -2.07693965888434        0.32610269980611
H           -2.43756837576739       -2.96268560085217        0.75881290079163
