26
 energy: -41.565965313379 gnorm: 0.000699896031 xtb: 6.6.1 (8d0f1dd)
N           -4.14853773964496       -0.53917807406321        0.89342593428551
C           -2.94075046775568       -0.11248227040494        0.37406484369603
N           -2.57860450133573       -0.78548542061437       -0.76305417026672
C           -1.40074137031706       -1.04352096955477       -1.14868604956976
C           -0.14219343128595       -0.78210052455921       -0.43300750780883
C            0.81533115627883       -1.72902490433536       -0.28369938754497
C            2.07914447388793       -1.55936411091375        0.34140519121336
C            2.73662400561843       -0.36923343013051        0.48292701999866
N            2.44031030077759        0.78268186596428       -0.18212374423810
C            1.27572790507397        1.19556693385401       -0.51637430517049
N            1.18799361823264        2.27235340488407       -1.33594942263090
H            2.02057786372028        2.60562103339751       -1.78987443075368
H            0.29040985061117        2.57390055780244       -1.66869214444085
C           -0.01993010548605        0.61933231838867       -0.07287245109591
C           -0.98161454075972        1.39724315324946        0.47652431103935
C           -2.28495809588019        0.97523277258681        0.87063146800522
H           -2.80726982897361        1.59842837712091        1.58488859437535
H           -0.72470020404517        2.42513695896919        0.70421933615517
N            3.89533516550512       -0.27603392268598        1.23183016150333
H            4.47719419578571        0.51395083887655        1.00177422526050
H            4.39095959202455       -1.13756405014713        1.39518465487757
H            2.57213116972260       -2.45188872384951        0.70349684043501
H            0.56521472336784       -2.73688135918779       -0.59417191496750
H           -1.32352914654757       -1.49373343075243       -2.13796718958726
H           -4.67123787825351        0.13693303668502        1.42660393694679
H           -4.69749326722146       -1.10275088488027        0.26347242858339
