25
 energy: -46.689080697958 gnorm: 0.000597619001 xtb: 6.6.1 (8d0f1dd)
N           -0.11084953901898       -3.68913269334454       -0.55228851907550
C            0.21111998161519       -2.59146830078797       -0.42865341162160
C            0.64289478220932       -1.26098616676479       -0.29277083345736
C            2.04628144469418       -1.00657839844715       -0.41120728586489
C            2.70020730604302        0.13344672215848        0.03741213603645
C            2.12826023910052        1.32774161045799        0.51192514926044
N            0.93515457908783        1.81218421489641        0.20264292732157
C           -0.06510473202367        1.13786720991422       -0.29984565083663
N           -0.91525052955493        1.69428911003660       -1.12934012537749
C           -2.16809811854712        1.40502285312138       -1.37321142182177
N           -3.04931502569733        0.82640441237727       -0.59368371285847
C           -2.63251960258297        0.06816385776844        0.43617327702097
N           -1.49467051045702       -0.59136154382745        0.51769681099575
C           -0.32504730581418       -0.29921563455061       -0.00847830101982
N           -3.54553557585366       -0.16723385818542        1.40331135832228
H           -3.37602554254465       -0.92534762688747        2.04136892262975
H           -4.49263200061920        0.11176944867632        1.21478570368593
H           -2.56018386191710        1.81621356811459       -2.29818982047272
N            2.89360124089153        2.15566295571917        1.26593735694598
H            3.88279355335746        2.00016654523489        1.33959803922910
H            2.53669574731931        3.07983223673390        1.43839841318916
H            3.78171917275736        0.07929016544311        0.06875052437121
N            2.80104773089780       -2.02359048088957       -0.90205520019183
H            3.80183704413584       -1.98092702475479       -0.82841114232820
H            2.37299130382194       -2.92081729191242       -1.05837185508269
