27
 energy: -46.092495372563 gnorm: 0.000760364529 xtb: 6.6.1 (8d0f1dd)
N            3.59636151722317        1.43216050334798        1.69019474489099
C            2.80703661433001        0.85855655532637        1.07733964577822
C            1.83779707346473        0.15722915823177        0.34368497211760
C            2.16816533767649       -1.09216314119461       -0.12697248392047
C            1.30386589358102       -1.95597559438428       -0.90558097000978
C           -0.03546523375240       -2.00306928645974       -0.89614530927033
C           -0.92713281983857       -1.12695101883557       -0.15701370665998
C           -2.07622346112113       -1.62620200616864        0.37839602762868
N           -2.96056204538525       -1.00428798079317        1.19700326390305
C           -3.19474366875444        0.25842549907937        1.16678331086746
N           -2.88194981449517        1.13501251689857        0.19251557298924
C           -1.81106575964821        1.07346978797937       -0.51480817688538
N           -1.74645976506136        1.71461711413504       -1.69829985163243
H           -0.85866471748734        1.85182185641331       -2.14757964299990
H           -2.55888502557986        2.19904896403604       -2.03972659882887
C           -0.59828238306119        0.29548776664536       -0.12100693352619
C            0.59993485842772        0.88417662109190        0.06214676737157
N            0.73606164217908        2.27082758218999       -0.04295215402092
H            1.55331426233469        2.64391990283325        0.41955029234936
H           -0.10164651180080        2.79311734282463        0.17125822951608
H           -3.86984913220663        0.64888365002158        1.92049478909654
H           -2.27421570703020       -2.68799019726897        0.27275660709615
H           -0.51614824071423       -2.79076336065259       -1.46571215436863
H            1.83694597195371       -2.70274390226812       -1.48224050391799
N            3.42932869807412       -1.57518754411724        0.06379367564413
H            3.60990020760508       -2.55039208452358       -0.09570637571083
H            4.04495102998714       -1.08377614488712        0.69057932450226
