26
 energy: -47.179977565927 gnorm: 0.000829468811 xtb: 6.6.1 (8d0f1dd)
N           -1.27353680095070       -4.05365245766437       -0.70383698092398
C           -1.22721885361506       -2.91912639145389       -0.52652163613295
C           -1.21202217527200       -1.52102843836628       -0.33236614321956
C            0.01369815377071       -0.95145299053961        0.11601141068587
C            0.93897145258305       -1.83095592675964        0.69280484766578
C            2.29119980655553       -1.65663649869545        0.95616051277656
N            3.14563712426319       -0.79976516225529        0.45936436626550
C            2.81813773103822        0.28342882553779       -0.24835108094262
N            3.86340830706097        0.85788390031471       -0.87571691156840
H            3.77501534158661        1.74703636061816       -1.33336085050423
H            4.77104863994737        0.44202585073091       -0.76089477859507
C            1.57692313808448        0.94258354389545       -0.28960554664008
C            0.29450653893047        0.46777108157587       -0.02572654576335
C           -0.72465289880819        1.45858607007216        0.11292407443623
C           -0.28785315722364        2.76967372395787        0.36936432541215
N            0.01591596903743        3.86024085367531        0.58307013325721
C           -2.13104366887323        1.30207012609019        0.11288218537288
N           -2.83948884299136        0.30972493631287       -0.43134935066504
C           -2.40046104739828       -0.88505455252854       -0.70734768237510
H           -3.12908159764862       -1.50046453419758       -1.22852100882123
N           -2.89599537204203        2.29843360687426        0.59988632849501
H           -3.89200950858654        2.22372577023021        0.48526976388296
H           -2.48675149211784        3.16130795545978        0.91554336242568
H            1.63144701537963        1.97794871700068       -0.60629148862157
H            2.76240914348257       -2.40307591800823        1.58916878027857
H            0.53330485460630       -2.78777112077911        0.99901230171793
