29
 energy: -50.348269852527 gnorm: 0.000682454672 xtb: 6.6.1 (8d0f1dd)
N            1.49528380653225        3.73564731313850        0.92526120299215
C            1.60394980468324        2.61270290276246        0.69820857191342
C            1.78066703642645        1.24276549324485        0.42084796065637
C            3.07169229346186        0.77339254905122        0.73731796403006
C            3.65639327539608       -0.41597467107777        0.41003724066507
C            2.99232056065690       -1.40876563172598       -0.36460447242433
N            1.70805248458958       -1.61082000323245       -0.41723763007208
C            0.64365957223955       -0.92055747674319       -0.01937347506448
C           -0.45282396345101       -1.69966931850192        0.33013027516539
C           -1.81029683977399       -1.39570085439113        0.44164998113148
C           -2.44968998097509       -0.22294248412108       -0.02497297526079
C           -3.85154704973554       -0.22734074616621       -0.00497483788135
N           -5.00476512966460       -0.23787729628018        0.01193519611533
C           -1.82731854956770        0.95471034787751       -0.51457694951426
C           -0.47648453646086        1.28405106422038       -0.42363609891703
C            0.63197473107169        0.53767167464719       -0.02586438496732
H           -0.26599067301286        2.32414893789072       -0.64981091586152
N           -2.64607617537675        1.89493310142102       -1.05729238545775
H           -3.64400546613589        1.79217526794852       -0.97689027743352
H           -2.28193421233242        2.81287986405354       -1.24350261591791
N           -2.60796298938981       -2.36142452787272        0.96448577616451
H           -3.60809151555214       -2.25846050501507        0.94414245571052
H           -2.21875076238481       -3.25544264982748        1.20292256322178
H           -0.20142639931653       -2.73955857681798        0.50477619177344
N            3.75523195592848       -2.31035907716403       -1.03586722538050
H            4.73898480818457       -2.14899948280619       -1.14978261776910
H            3.29220073949541       -2.94121690472720       -1.66656651661040
H            4.70042732868965       -0.57083841267967        0.63925821964167
H            3.70019615087333        1.50164475019720        1.23849193935183
