24
 energy: -42.935864131004 gnorm: 0.000866232159 xtb: 6.6.1 (8d0f1dd)
N            3.77904244829389        1.82343720619006        1.26598124021787
C            2.92011758265491        1.19538450868341        0.82850017698197
C            1.88739079153574        0.42132201076530        0.27667453422166
C            0.63312666820207        1.07746337276522        0.02619691974315
C           -0.55716306227526        0.46831033620915       -0.14303511520075
C           -1.80798188730476        1.22668060990961       -0.44018987017542
N           -2.86644168560402        1.14401964945871        0.28107946877083
C           -3.14052609996978        0.17116306576064        1.16893219389461
N           -2.85581234102961       -1.08008203067776        1.09408012211578
C           -1.93475365857780       -1.58183168304745        0.23333585990971
C           -0.82778649835975       -0.95863129216357       -0.24428824640572
C            0.16676100650901       -1.65213846984353       -1.07352556843077
N            1.42326362447678       -1.63164752728165       -0.92269285624506
C            2.15766493978746       -0.90194125965005       -0.03977767090728
N            3.29060241784292       -1.52081531596011        0.38627628997634
H            4.01065822439910       -0.96911691890926        0.82154576250483
H            3.54988082494396       -2.38124235058243       -0.06347212898896
H           -0.19592772599389       -2.23670532412479       -1.91568575672928
H           -2.05451413392944       -2.64330575903022        0.04509968853690
H           -3.82733216362569        0.46765623785624        1.95390766628469
N           -1.79566857864430        2.01125434039815       -1.53372306881867
H           -0.92705245107657        2.25434771229917       -1.97513111950300
H           -2.63011999064253        2.51876122204003       -1.77533079185162
H            0.65739885798747        2.16038391663543        0.05888028329772
