22
 energy: -39.498038604906 gnorm: 0.000622262330 xtb: 6.6.1 (8d0f1dd)
N            5.06973221897890        0.36863590133257        0.24084400483219
C            3.93153554805369        0.24850079341518        0.14653480500354
C            2.53801640804350        0.10607627485536        0.03037212829498
C            1.84344137426944       -0.73429311866501        0.91701552426755
N            0.65809348307530       -1.22995616976821        0.71419732412508
C           -0.33263952385950       -0.89819399295113       -0.06992932604892
N           -1.16749410070186       -1.76980047106979       -0.56360161467252
C           -2.45600570173616       -1.56417192079205       -0.76489833308952
C           -3.25424559107818       -0.57010594011551       -0.24564797985444
C           -2.84519681207041        0.68343272560494        0.27022270476152
N           -3.81132707606076        1.46469907076441        0.80805631741781
H           -4.76735962510621        1.15748239688484        0.81599613566645
H           -3.60938846495491        2.41170713741614        1.07395979954968
C           -1.57148593665163        1.25181767628768        0.11959170677243
C           -0.44120189760161        0.57687125198968       -0.30437568867685
N            0.57554329891694        1.12085418199843       -0.92437548727167
C            1.84473999000847        0.83841399299047       -0.95281742499185
H            2.40302549592590        1.32760441176371       -1.74358145445642
H           -1.47530273572314        2.31336282129588        0.30798059960476
H           -4.32334796933262       -0.73400968237834       -0.28111747091604
H           -2.93871922206506       -2.37442584093661       -1.30036241938298
H            2.34306027376956       -1.09573859062156        1.80919780356456
