29
 energy: -51.123705117576 gnorm: 0.000659263715 xtb: 6.6.1 (8d0f1dd)
N           -3.77942310530623       -2.67350477901759        1.81381318298757
C           -3.09008829992068       -1.94608342537018        1.25478053024749
C           -2.23290569160316       -1.06254591413459        0.56039596047808
C           -2.47912479860519        0.27185135810417        0.66085681890854
C           -1.81034711285150        1.30640565987715       -0.06784359782634
C           -2.53234757171120        2.50310926662370       -0.25461246475937
N           -3.08788567670899        3.49685532948471       -0.41013293418688
C           -0.53282726060758        1.25409594753127       -0.58224060838865
N           -0.06822426198454        2.21429752172685       -1.41423839870941
H           -0.66360504870038        2.98201965449786       -1.67927178192448
H            0.91299158668614        2.26293392929793       -1.62494415527454
C            0.41190385538633        0.16569297337834       -0.26407136338722
C            1.62667860498810        0.44333464083813        0.27431924966064
N            1.98145797796229        1.74463533430524        0.61571620671057
H            1.21868264449358        2.35548967948194        0.86797560013770
H            2.76795968851560        1.82005305818064        1.24474272846952
C            2.65765007359145       -0.56683382415343        0.50187266657094
C            3.57936209439601       -0.28097540014085        1.53734142011188
N            4.31538512174299       -0.03767336300496        2.38350847187694
C            2.88244202172312       -1.68088874401929       -0.23966963396471
C            2.12174293217676       -2.11734775320620       -1.37243948492834
C            0.81857221094376       -1.88377070691948       -1.57992502207776
C           -0.06141055246613       -1.16345234168204       -0.65579143350654
C           -1.24159706070780       -1.68831196585542       -0.28194498812548
H           -1.47451170400805       -2.69651966399967       -0.60160977300956
H            0.34553823423387       -2.28635901021016       -2.46719686097002
H            2.65936817561196       -2.73347318186072       -2.08137395652332
H            3.75715741646249       -2.27161702230456        0.00297341079446
H           -3.32837985281446        0.58916774304096        1.25378151151106
