24
 energy: -42.948298731700 gnorm: 0.000378134648 xtb: 6.6.1 (8d0f1dd)
N           -2.12460345110623       -2.84093372311817        0.75312018450665
C           -1.74240756805728       -1.80181764097975        0.43927981332995
C           -1.32027387726143       -0.50545428417558        0.10704987082361
C           -0.02134883607541       -0.33558859443641       -0.40002295093735
N            0.61194901009373       -1.30217841591136       -1.00174552169935
C            1.88529033664202       -1.55979746045027       -1.19438727440873
C            2.93343757465176       -1.11133330498799       -0.41843165868122
C            2.77447123652155        0.00579299915360        0.43018207529059
N            1.87785012026716        0.95615494131411        0.23592547844038
C            0.68999637396997        0.96499789495872       -0.30160017524159
C            0.11655097764801        2.14076771988218       -0.80288708172620
C           -1.24270163197648        2.35827481086702       -0.91231227109197
N           -2.24758673097858        1.73038312608721       -0.33902343856621
C           -2.25207194422812        0.55707077827687        0.27483969164067
N           -3.34471818132289        0.33114759809667        1.03886455789262
H           -3.53725811723942       -0.59618085842787        1.37835065064792
H           -4.08445491703054        1.01128942963291        1.00697004697128
H           -1.56354092895487        3.25474720058229       -1.43602417319498
H            0.79019780100135        2.93874680315958       -1.08132461137879
N            3.66644533448464        0.23499214393916        1.42534186607847
H            4.49835087568179       -0.32283207908057        1.48826238357487
H            3.63818697660681        1.11953857286711        1.90112579465964
H            3.88751449857230       -1.61450590781383       -0.45241785827309
H            2.06656162458791       -2.29698582433621       -1.96872442875684
