31
 energy: -54.581092055331 gnorm: 0.000458055498 xtb: 6.6.1 (8d0f1dd)
N           -4.83793355144934       -0.55235032603531       -1.02172790831351
C           -3.78272850871149       -0.25931333678063       -0.66247332160676
C           -2.49626092927962        0.10800884812168       -0.24081761416405
C           -2.16779896309948        1.47400085299860       -0.30815811605073
N           -3.11759122502414        2.31701650581034       -0.78153102966613
H           -4.00635937960439        1.96119882356232       -1.08824320011722
H           -2.94299971930115        3.30390772324478       -0.83034781216547
C           -0.98156733167807        2.07404564161883        0.15255770905599
C            0.28257492377267        1.56276889244860        0.38450217270234
C            1.24707469599958        2.47633765870129        0.90405345770148
C            2.61239546134296        2.43303424443499        0.89901211570692
C            3.47465476542622        1.53152467472126        0.27354304550292
C            3.14341953246704        0.33855010020729       -0.34465856986949
N            4.11941275247506       -0.32940871771708       -1.01132727523573
H            5.06759286009523       -0.00401456517159       -0.94946393821644
H            3.95590964352565       -1.26535397449095       -1.34210569874651
C            1.85717969253315       -0.29368179837993       -0.27617659682179
C            1.82520763453214       -1.59871550977635       -0.81937030965088
N            1.84474847927213       -2.60827576359993       -1.37144801912505
C            0.62503979859971        0.17343025399236        0.18854659578803
C           -0.31720701544962       -0.85609603345948        0.54073159374110
C            0.26365101040040       -1.97652556872097        1.16723940151889
N            0.68729445277342       -2.86248448789348        1.76824265432260
C           -1.70049039381790       -0.91955141748665        0.34143693641037
N           -2.34029991171127       -2.06140731603458        0.68389795108786
H           -3.30893434884806       -2.18458241000798        0.44226627621779
H           -1.80822735985359       -2.85970902926566        0.98806361678584
H            4.52304876975201        1.79974121933196        0.25689992114577
H            3.10496794869026        3.26576196107977        1.38656294905819
H            0.80824176738545        3.34879926103046        1.37316828259174
H           -1.05331773331493        3.15237600861609        0.24456985311237
