27
 energy: -46.104789451551 gnorm: 0.000947110459 xtb: 6.6.1 (8d0f1dd)
N           -0.64481237712735       -3.62645646488013        1.35215403576400
C           -0.88367667489319       -2.57543672040276        0.94821531029035
C           -1.20074750168179       -1.29239913261440        0.46219407764077
C           -2.55537628698909       -1.01179594951803        0.44437287504204
N           -3.23063752372347        0.01022524518681       -0.03955802002848
C           -2.68549118303333        1.17386482273146       -0.37866160157011
N           -3.56889030609785        2.02647226984215       -0.96137063334016
H           -4.53099093574650        1.73798115122001       -0.99336668844753
H           -3.34467897368631        2.99701052787767       -1.08061173005233
C           -1.38568502897061        1.65317973740497       -0.14009369438058
C           -0.19126341796917        0.97959773105517        0.09709000814979
C            0.92696479000755        1.78589227692482        0.40330728128522
C            2.28400165355178        1.50481019103120        0.38777740735588
N            2.93774375094591        0.47626218975265       -0.17861882429918
C            2.38362881713312       -0.65283551935730       -0.54579698192082
N            3.20764766079074       -1.49355387099297       -1.21446917975224
H            4.17356744284787       -1.23194917463251       -1.30558569922758
H            2.93867146860318       -2.44590140666405       -1.38291675227291
C            1.07391218230833       -1.14227922815481       -0.27118150248142
C           -0.07377234547655       -0.47140919680021        0.06666591651356
H            0.98206678957157       -2.21810973456961       -0.36666715340977
N            3.13824747371506        2.41916687192458        0.92251758774628
H            2.80778302685438        3.32019518824557        1.21462007033886
H            4.11955421620493        2.28908135907924        0.75425740591636
H            0.68320432540542        2.79989098448823        0.70089066753257
H           -1.28811938741550        2.72938141908182       -0.23650762399875
H           -3.20516312753052       -1.79556680434790        0.82800067520829
