24
 energy: -48.532554702058 gnorm: 0.000338673485 xtb: 6.6.1 (8d0f1dd)
N           -3.70635920215194       -0.23817483273057        1.37119103639066
C           -2.69065881492877       -0.56402356814207        0.94980374607467
C           -1.41135738682024       -0.99951001856232        0.53421277136730
C           -1.08352756959267       -2.34224407121592        0.81472198386354
N           -0.17196238411996       -3.06315940394350        0.23610010906856
C            0.84618307200046       -2.68127491370233       -0.50748832813929
C            1.49448541748723       -1.45814111686518       -0.47271689132388
C            2.78752733440132       -1.35178367476703       -1.02895511917399
N            3.83399085078826       -1.26860492094741       -1.49068945522199
C            0.93314782702102       -0.24063054813945        0.04313297369172
N            1.74471344938016        0.69250826826313        0.43205940780580
C            1.55878182219649        1.99590875053025        0.59060359099679
N            0.83146302573997        2.77332961787435       -0.22014049185030
C           -0.25775481799510        2.34395892944126       -0.80318964885762
C           -0.97957362506262        1.16039786630852       -0.57732247506532
C           -2.27080892321341        1.12599897108078       -1.15487666925330
N           -3.28576195482276        1.11915760289206       -1.68874967407620
C           -0.51817841768699       -0.04371930474456        0.01954719104722
H           -0.71580602728117        3.07011139245795       -1.46716207065431
N            2.28838035246699        2.61224853481127        1.52398290141061
H            2.27881589635418        3.61701526332263        1.55801802508448
H            2.95889158193893        2.09107724370870        2.06189094961160
H            1.29214441637967       -3.48076543394223       -1.08989718907338
H           -1.73028384837908       -2.88677255558857        1.49515940487747
