29
 energy: -50.336886560357 gnorm: 0.000815531546 xtb: 6.6.1 (8d0f1dd)
N           -3.76454964426714       -2.69195501657843       -1.19713539571300
C           -2.91923447460988       -2.00344735350682       -0.82943793393163
C           -1.89314280072054       -1.14427080562986       -0.38718259866868
C           -0.61860358668180       -1.61655573094412       -0.50339667080896
C            0.61523357250730       -0.99556259609165       -0.14090660109310
C            1.65635781084464       -1.81558072833210        0.23493437099921
C            2.93035505079845       -1.46042886686126        0.70310061564011
C            3.54814827097166       -0.24114859922125        0.51895684493821
N            3.19633157356380        0.66558189911886       -0.42314789063467
C            2.01565731865454        0.89606677726930       -0.86785717184470
N            1.89527810447752        1.61192417117757       -2.00337313721406
H            2.72712807005245        1.93405373770870       -2.46732249436333
H            0.99626551080667        1.93644270256512       -2.30958066765689
C            0.73121164262672        0.46005797487271       -0.25283124444480
C           -0.20750196902016        1.38710817439916       -0.01705482299067
C           -1.56344636725528        1.19584711546856        0.46539065820629
C           -2.15181306983163        2.31712137531183        1.07122569755638
N           -2.64487626294943        3.23883448707301        1.55429988169096
C           -2.34621625866641        0.08451214075187        0.27085721791550
N           -3.63052169624827        0.06592180728445        0.70981391495703
H           -4.02418134352060        0.89832469926398        1.11500565129298
H           -4.24148676964811       -0.69329959409359        0.46276082669311
H            0.06213421900877        2.42898084859285       -0.15575356373878
N            4.69624109118345        0.07530088065628        1.18802790293882
H            5.19432153605658       -0.65847007509800        1.66021208332041
H            5.23658089654932        0.84104452375123        0.82341953577059
H            3.48061639225633       -2.21639659090148        1.24668535451596
H            1.42210318822426       -2.87210577672452        0.29463684065520
H           -0.53529491296228       -2.63461307688634       -0.87390229158233
