30
 energy: -54.853914200647 gnorm: 0.000518452611 xtb: 6.6.1 (8d0f1dd)
N            4.72505318829678        1.67312126721317        1.96113165989842
C            3.96244605871894        1.07563534356969        1.34481864543624
C            3.01588044073110        0.35155434191574        0.59106200764999
C            1.92524401206982        1.10163542804162        0.03996606963442
C            0.70287388756614        0.61478969373708       -0.31031331510413
C           -0.28815407460472        1.52946451772305       -0.83233198790348
C           -1.61916589837717        1.50210359564940       -0.58866748567851
C           -2.40954712453283        2.50998261674829       -1.19116629898582
N           -3.06308222051554        3.31818102384133       -1.67768681366770
C           -2.33298092793010        0.61814972422444        0.33597050738618
N           -3.45115276486131        1.14517244709394        0.89188881311398
H           -3.78883980094696        2.04760626570072        0.60649615944884
H           -4.02370846473589        0.57821911975961        1.49389842433121
C           -1.93748500260568       -0.66131926704154        0.64228570780977
C           -2.75378075973971       -1.39984413189287        1.51666479342535
N           -3.41966761527495       -2.01222024163099        2.22835826234146
C           -0.80352878021535       -1.38350924739381        0.06748240639500
N           -0.99983365326374       -2.75217431747215       -0.09278801519843
H           -1.73476228443773       -3.14407524753129        0.47846309092018
H           -0.16065365439032       -3.31270495678719       -0.09026054065533
C            0.35902181051553       -0.80461855860680       -0.30300342411926
C            1.43266230437620       -1.59576480995109       -0.97741720592963
N            2.62308491296388       -1.74709515157512       -0.52180428911341
C            3.22879705260601       -0.99188037385333        0.40073736286207
H            4.06302249035760       -1.47650010904504        0.89262999422227
N            1.09313206556811       -2.17144698756616       -2.14560363530010
H            1.79476899608094       -2.65738910320979       -2.67740903834076
H            0.12996035733612       -2.22719052050435       -2.42360516351314
H            0.08227225188707        2.34347404778693       -1.44653331913454
H            2.06650018865162        2.17500502466077       -0.00009947474158
