28
 energy: -45.815140718391 gnorm: 0.000741083271 xtb: 6.6.1 (8d0f1dd)
N            0.09532326930926        3.56003738574537        0.98557577851688
C           -0.24563362179751        2.48956522009310        0.72129967833683
C           -0.68793590500455        1.19900347013826        0.39809426185989
C            0.34609522760873        0.23809977555959        0.16763384355282
C            0.12231260727513       -1.18678919377379        0.38484500348657
N            1.04093634953469       -1.89639629487906        1.05337522327488
C            2.33326062306999       -1.87929214244707        1.03143184691341
C            3.17748185306355       -1.16964036214607        0.17878505437926
C            2.81066423994176        0.02706088744876       -0.43100825232215
C            1.57654524547408        0.69577529805276       -0.26794277107969
H            1.59286765448135        1.73319019653887       -0.58413405866148
N            3.75015990017115        0.67701140666052       -1.18123149032356
H            3.60634457324714        1.64783487744646       -1.39977449620629
H            4.70246089852819        0.35718338128000       -1.14079806251831
H            4.21117755525940       -1.47887712489956        0.10786586542873
H            2.79324447830461       -2.55890920864183        1.74453793901160
C           -1.01398088636671       -1.86919858907117        0.00683075239288
C           -2.26845884504684       -1.37952165342386       -0.40008197718634
N           -3.12363202501140       -2.29809124911161       -0.94467157927717
H           -2.88632268621803       -3.27197675903012       -0.87466379938331
H           -4.10073952455939       -2.07269400261620       -1.01448033585600
C           -2.74791605549330       -0.08755684032875       -0.23644178566709
C           -2.08071484811963        1.04090308492368        0.25204079848737
N           -2.86073167294737        2.11734357388869        0.56001946826142
H           -2.41974571621652        3.00103152725307        0.75263453811857
H           -3.82319323362391        2.12451514779428        0.27374678502734
H           -3.79705475873402        0.06050763339035       -0.46648957026195
H           -0.92589283623398       -2.94745821053451        0.06545542529848
