27
 energy: -46.099323286429 gnorm: 0.000369834348 xtb: 6.6.1 (8d0f1dd)
N            4.02451099379267        1.98237489832892        1.55151831853194
C            3.25271330340681        1.25916756468505        1.10244861305028
C            2.29654910022130        0.38952785852008        0.54253916355381
C            2.54300960188562       -0.95712677881573        0.58293520922377
N            1.91062718227021       -1.90238054357783       -0.12838951613813
C            0.68852265622369       -1.88736915421526       -0.51869132092206
N            0.30127810430258       -2.74385652865658       -1.49037922024097
H            0.97418262885457       -3.40948151715484       -1.83246375154872
H           -0.67719246708535       -2.93753327951695       -1.61221150744424
C           -0.36727649070995       -0.96831475966440       -0.01619695290653
C           -1.51412873924141       -1.43661330015928        0.51737736096549
N           -2.54183475959182       -0.73700922791029        1.05676337212766
C           -2.91005557156942        0.43784532309791        0.65609973059964
N           -4.01736170351916        0.95482959718190        1.26922044849446
H           -4.30329774983214        0.49127517268169        2.11547164202360
H           -4.19166343154683        1.94229857342121        1.20337295520514
C           -2.40992356002870        1.19461878383858       -0.46865530086182
C           -1.13651133462687        1.19077330304050       -0.93109649583682
N           -0.76413559963465        1.98199817242354       -1.98054983585319
H           -1.47739136364513        2.37942878441600       -2.56755200709369
H            0.14625061029337        1.84834634866761       -2.38422754643242
C           -0.05117019070520        0.42898801175422       -0.28483260949877
C            1.14848959700293        1.01246649018555       -0.06461417969667
H            1.24785268417291        2.07108922337518       -0.27394767843062
H           -3.11929472052375        1.86685429963597       -0.93608956921087
H           -1.62085673062222       -2.50761420790807        0.66453937603032
H            3.41975228335577       -1.32077638707378        1.10554327220897
