27
 energy: -46.891403083640 gnorm: 0.000311244047 xtb: 6.6.1 (8d0f1dd)
N           -0.96432186085773       -3.92204850665670       -1.04345200215366
C           -1.12894913516411       -2.83055841238619       -0.71932945055551
C           -1.36625926525629       -1.49643720068271       -0.32946025367318
C           -2.69598097064759       -1.11189829731976       -0.44869448192092
N           -3.32199368583723       -0.04488337598492       -0.00062494176315
C           -2.72524405970908        1.03859378474715        0.44791533409499
C           -1.40632151700652        1.45884119907619        0.32950268867356
C           -1.20506461971868        2.79892484411058        0.71915128942049
N           -1.07077348745442        3.89430277098060        1.04424836807265
C           -0.21447274296478        0.72050200363578       -0.02297779164412
C            0.88980796689485        1.49491647892618       -0.33109896711951
C            2.26697208158173        1.20654538787321       -0.41447513204770
N            3.05131234718293        2.20975410120829       -0.87675299837977
H            2.65422125307159        3.11251825026167       -1.06772713570720
H            4.05168662335964        2.12828997308577       -0.84630869019010
C            2.90257373856913        0.03928698499098        0.00084014009247
C            2.29862704951083       -1.14477133695642        0.41588787639754
N            3.10966075468234       -2.12634914884954        0.87854225736115
H            2.73708326525278       -3.03953735263931        1.06934914728740
H            4.10747418081003       -2.01781668816657        0.84853302843202
C            0.92983699475653       -1.47035990555486        0.33192713952894
C           -0.19493069953529       -0.72614960638464        0.02339474345419
H            0.73445666870499       -2.52170331725525        0.51324736150980
H            3.98541825156604        0.05395060974475        0.00107707023785
H            0.66608384068998        2.54060615130656       -0.51237399488540
H           -3.41331949106946        1.74885511906751        0.89951672484656
H           -3.36435293490913       -1.84047221690133       -0.90078151997151
