26
 energy: -47.190117846271 gnorm: 0.000886419344 xtb: 6.6.1 (8d0f1dd)
N           -4.59467663900592       -1.71265446505332        0.49670205022660
C           -3.49539184504116       -1.38141673447146        0.42847055479385
C           -2.15827347532893       -0.95686791680033        0.33235102582478
C           -1.19289352757080       -1.73523591135981        0.95739364891676
N            0.09646157685619       -1.72836857441924        0.73987563949638
C            0.86914035635336       -0.81613320912957        0.21918343573377
N            1.96581594085739       -1.20286945998597       -0.40369337022099
C            3.16481305638542       -0.69600766070274       -0.39810020701062
C            3.62867833865195        0.29423930391578        0.52967860083051
C            2.83063566498589        1.26827598955847        1.05195155777255
C            1.46465289605869        1.50658179782259        0.78825126460982
C            0.54066034375737        0.61791870303745        0.29237889912896
C           -0.73168895654020        1.03502925052115       -0.21564973080046
C           -0.76534499660685        2.35185093529578       -0.70984312144351
N           -0.81250547407552        3.42967333756942       -1.11087496435306
C           -1.91638535435454        0.29361241140056       -0.32899584489092
N           -2.95645812011697        0.83674920804608       -1.00410672661387
H           -3.86091421385392        0.39756562276486       -0.95826993785637
H           -2.89156721802472        1.78217762206065       -1.34356550400233
H            1.10765213104905        2.50147688905140        1.02443412215031
H            3.32066584713619        2.02356046253798        1.65409772690988
H            4.69205546326735        0.32851278260121        0.71999484681589
N            4.04487843586556       -1.21023712333879       -1.28034822728639
H            3.72818633281956       -1.90651257899980       -1.93160143645270
H            4.99653625185551       -0.89386144011967       -1.30955837063776
H           -1.52979281168092       -2.52883986080605        1.61642666336036
