22
 energy: -39.503094662384 gnorm: 0.000588561737 xtb: 6.6.1 (8d0f1dd)
N            0.98429872176818        3.30312447884349        1.55461177239145
C            1.15310527846893        2.26694568047335        1.08784455459374
C            1.34301937958854        1.00675729714491        0.48448451201601
C            2.64557459095858        0.56813615905985        0.32247486731535
C            3.09496504618744       -0.54705951188362       -0.39181813962030
C            2.27736971263577       -1.53131702731581       -0.91106528570351
N            1.06773175332290       -1.83906850646687       -0.49289828948778
C            0.19410444431339       -1.16210380922247        0.17473314316160
N           -0.68585767530643       -1.79196906636805        0.95774231855247
C           -1.94081709167858       -1.52459901857324        1.07829741288163
N           -2.72198184591806       -0.78461365060727        0.30053559220972
C           -2.30229527154894        0.28006361034799       -0.35557329516363
N           -3.21859741554823        0.87668521744767       -1.13903713836010
H           -3.04312960969008        1.77443255056863       -1.55352889373746
H           -4.14244078147528        0.48110807626292       -1.17724689519553
C           -1.03551577394754        0.93782760914274       -0.19885503131082
C            0.13377508362344        0.31356068078599        0.13024503593692
H           -1.01225499140341        2.00251592388811       -0.39717246096784
H           -2.46673489098080       -2.06652527852022        1.85880580161413
H            2.67339560029135       -2.21748012401561       -1.65101957029684
H            4.15300975258667       -0.60311488412250       -0.60349330825406
H            3.40987767515326        1.24392418392814        0.68961706822682
