29
 energy: -54.379026770492 gnorm: 0.000431788666 xtb: 6.6.1 (8d0f1dd)
N           -4.95619654785252       -0.85249259568707       -0.10353869395796
C           -3.81976760850813       -0.66373010657513       -0.06117229904084
C           -2.43698623689191       -0.45264312872857       -0.00163018764424
C           -1.92681776198138        0.75260747306033       -0.53368036966919
N           -2.79978651808910        1.55879882030916       -1.18778143469138
H           -2.52164284016155        2.49339468141924       -1.43569313781615
H           -3.77904203282253        1.32779246293258       -1.19054754623243
C           -0.60893986981150        1.23418991510676       -0.34861176138314
C           -0.40742672781447        2.59315855030052       -0.64438218349386
N           -0.25945200303941        3.71132827863047       -0.87830616394725
C            0.54908002750660        0.51995446345753        0.05366535561030
C            0.56178335979398       -0.95479268301169       -0.01650347713435
N            1.55404066942311       -1.59306431924045       -0.59223072901873
C            2.81160753590252       -1.22632141592927       -0.71495200857374
N            3.50580947090519       -0.40803012750208        0.07800063445691
C            2.96765751605134        0.62582049025340        0.70407390959329
C            1.67364603361540        1.17479602401924        0.51639482205246
H            1.56154040620011        2.21878671047051        0.78425206553237
N            3.81374791448298        1.28993921456071        1.52465674084277
H            4.77559467554643        0.99992244326229        1.54227706834823
H            3.56529978893152        2.19229080618439        1.88769737299753
N            3.53140816029774       -1.85753596686339       -1.66734747192722
H            4.53182468985647       -1.77694805259866       -1.63331750683102
H            3.10991385463398       -2.63385494469207       -2.14532631992316
N           -0.39549967490370       -1.68092253969374        0.50710133660229
C           -1.66829214503259       -1.42960398206927        0.69333797783687
N           -2.30729956941414       -2.25183413726672        1.55770648328959
H           -3.31293400790154       -2.26826978039915        1.57842023880251
H           -1.79726422042350       -3.04375332781082        1.90884087991684
