27
 energy: -46.091988861803 gnorm: 0.000593505484 xtb: 6.6.1 (8d0f1dd)
N           -3.53311501658663       -2.61122272091423       -0.96617391224903
C           -2.82700910051230       -1.78351080903272       -0.58762896692299
C           -1.97375673131059       -0.76234627112944       -0.14373893173714
C           -0.75040201958735       -1.19163259642276        0.48357570615730
C            0.38678284916608       -0.48764773530904        0.58043479134903
C            1.57454823026301       -0.95981983851302        1.31318994212876
N            2.74364255141429       -1.07832791007993        0.84013891192843
C            3.11970594125700       -0.63613838378132       -0.40284075799452
N            2.81340297847465        0.50881313225703       -0.92207453385621
C            1.77766221718933        1.27269643957492       -0.49434231269574
C            0.63338972340686        0.88087711623839        0.12548521227960
C           -0.39606736468436        1.86974638214783        0.47325542586781
N            0.07268155699795        3.06337756624050        0.95019546146233
H            1.03029391318358        3.11186161276630        1.25061806760217
H           -0.57589483859427        3.69861691197207        1.38355353665154
C           -1.72585797267741        1.69305980832492        0.26820347729690
C           -2.41517594752019        0.54551718694033       -0.24127045720564
N           -3.67954564057688        0.78599526923686       -0.70512489564949
H           -4.17277827592369        0.03071932457660       -1.15156756871928
H           -3.93206202865158        1.72231404969157       -0.96588236151050
H           -2.36512978790901        2.54638766781687        0.46697828064231
H            1.87013808577542        2.30570491349132       -0.81165944483239
N            4.03486706754535       -1.41955333772386       -1.03262999345980
H            4.53842955979259       -0.99946280830584       -1.79479707530557
H            4.50129406066774       -2.11989429845715       -0.48259486993796
H            1.45951740333175       -1.19193445407045        2.37136515311564
H           -0.75254335362946       -2.20933920793233        0.85593748039237
