22
 energy: -38.714192002706 gnorm: 0.000565523922 xtb: 6.6.1 (8d0f1dd)
N           -3.52647671931719       -0.55097979946828       -1.20720375416229
C           -2.53618542136281       -0.18513144805386       -0.36220408679288
N           -2.74226084556996        0.97170312907154        0.25719163249477
C           -1.86006065387304        1.50914032157948        1.08218362926765
N           -0.56963795082852        1.44025844353189        1.07230966395974
C            0.20864168281963        0.58287457234398        0.41961927197552
N            1.33190044542624        1.01148970182024       -0.07502835444948
C            2.42901070188171        0.30882323997078       -0.34145693194906
N            2.86904329997524       -0.78491055804916        0.26585365373922
C            2.06749474389565       -1.68320041641906        0.82430544065682
C            0.69917441502005       -1.81763847139288        0.74943538511949
C           -0.22183088837325       -0.82763228946715        0.33352016109553
C           -1.49444102668638       -1.11677122671027       -0.11552995034184
H           -1.70181523534216       -2.14971108238733       -0.37092437187304
H            0.27544594540084       -2.76224514616921        1.06775637791246
H            2.62063065000906       -2.48981689269477        1.29782745684057
N            3.27084084937406        0.85908131657511       -1.24511590984495
H            4.20542637634441        0.49315189112781       -1.29280561037099
H            3.08976492962080        1.79746058644770       -1.55479497138051
H           -2.28363805015959        2.19968706205392        1.80691348585530
H           -3.56555722466204       -1.47848968404063       -1.58849030224734
H           -4.32816181809249        0.05092320423052       -1.27943438410474
