25
 energy: -38.648118955729 gnorm: 0.000618440158 xtb: 6.6.1 (8d0f1dd)
N            4.58721636613281        0.73588532578668       -0.53153596999026
C            3.47206306017481        0.57707454480973       -0.29178267485400
C            2.11503612670794        0.36103844736861       -0.00550946446220
C            1.41265801717952        1.45969220603400        0.59204143231966
C            0.08769775812639        1.65788757878126        0.68756738360479
C           -0.99913710945151        0.82575814685174        0.19004132117018
C           -2.09508110542731        1.46628457278776       -0.30783803137716
C           -3.31732003612819        0.93454441068279       -0.80023709313463
C           -3.87214812059359       -0.26073051567146       -0.49231055743734
C           -3.31715406845439       -1.21850947500868        0.41005443386052
C           -2.03185620152629       -1.35580529666344        0.77929795198928
C           -0.86225270144664       -0.61404371837402        0.31674598241924
C            0.27971000819241       -1.32726053024826        0.13883711298107
C            1.59772009618425       -0.90515197546917       -0.23106144341814
N            2.39870977485253       -1.86448952665958       -0.76008249622499
H            3.36577466657592       -1.66004483944038       -0.94649828346113
H            2.08433732678899       -2.81554172536084       -0.82235324966891
H            0.18205245851974       -2.40387047518207        0.23653985961059
H           -1.79608390769213       -2.15159412236057        1.47709699223018
H           -4.02521436647084       -1.93032309423794        0.81818334277925
H           -4.85459673368020       -0.48954292482620       -0.88273709169739
H           -3.89241823380713        1.60830086500844       -1.42398668635321
H           -2.00413969109916        2.54288698745311       -0.39843861464584
H           -0.24027088846635        2.58295458818747        1.14633728766210
H            2.06047990970681        2.24578821975660        0.96302140139993
