20
 energy: -36.050900790372 gnorm: 0.000783230374 xtb: 6.6.1 (8d0f1dd)
N           -4.79318100515706       -0.07946092438923        0.00914408653074
C           -3.64578714527298       -0.04860116908843        0.02251699625344
C           -2.23900849448967       -0.01270867523701        0.03981429976070
C           -1.57596884726091        0.92364180365515        0.84716130835682
N           -0.35160556053866        1.33557115683255        0.65415227547176
C            0.68179344928679        0.80492983697270        0.07449672447492
C            1.74234754495750        1.49889091320609       -0.52312333407033
C            3.03950198002338        1.03077626834434       -0.59634504631652
C            3.60275988529047       -0.07797830250848        0.04446842398374
C            2.92238505770315       -1.05885480166282        0.74993566914029
N            1.65316750607423       -1.39113272808165        0.63380254857468
C            0.72150012694343       -0.68822231249461        0.05704480406480
N           -0.26380611954385       -1.21452775237665       -0.62612337000920
C           -1.50715079907668       -0.88622625092639       -0.79311705962993
H           -2.01662934102986       -1.40473137988680       -1.59776852107237
H            3.48869804980603       -1.72987525567775        1.38588509088188
H            4.68189294918581       -0.14403333628508        0.03736170266952
H            3.74199995261959        1.68030318556590       -1.10439851987151
H            1.52354350409237        2.47847064570335       -0.92622788115806
H           -2.12721685841282        1.46792250253508        1.60520662656424
