26
 energy: -41.573283064519 gnorm: 0.000344605089 xtb: 6.6.1 (8d0f1dd)
N           -2.78006541248418       -2.55600928213655        0.59720759644676
C           -2.08903091626021       -1.40468779507923        0.30688149232864
C           -0.70772534758533       -1.54199866623784        0.13410681577562
C            0.30441900013821       -0.59288117529097       -0.04137843509255
C            1.58703855539277       -1.07009657726440       -0.35664211662824
C            2.82960723847755       -0.44336244720831       -0.29142783656850
N            3.19301189151783        0.68257461933364        0.33361818363964
C            2.35096967532857        1.56670998306917        0.82603486620891
C            0.98586629420815        1.70564700719383        0.70062179488292
C            0.03366159432815        0.82880381922520        0.13712529062477
N           -1.10083935776439        1.40517387846019       -0.19723038926954
C           -2.32275817943742        0.94562033517103       -0.39537240344014
C           -2.85344753470638       -0.26301347715355        0.05899630412842
H           -3.93035191990504       -0.36477191350948        0.08758671087485
N           -3.14793022390346        1.82389951716078       -1.03759070211135
H           -4.14228515486209        1.69447471949750       -0.98425612950923
H           -2.79915318450447        2.75676967970040       -1.17478170572434
H            0.56419100500203        2.64305501777851        1.04055854832419
H            2.86628077237206        2.36460469503675        1.35713386489703
N            3.89303162005676       -1.07890204623333       -0.86798188350308
H            3.81545350860514       -2.04247433965345       -1.14025688102534
H            4.80289887878862       -0.72010228451661       -0.63512468011204
H            1.61857174020050       -2.09803150878236       -0.70421265951675
H           -0.35459748078610       -2.56634710654270        0.19817421529168
H           -3.72936376651196       -2.46911894506965        0.91599980544857
H           -2.26141557270402       -3.34169428124893        0.95022059252817
