24
 energy: -38.109641974475 gnorm: 0.000339222927 xtb: 6.6.1 (8d0f1dd)
N           -0.97507730501243       -2.47371564778972        0.53982209684306
C           -1.08306951819074       -1.07770897195384        0.42183555845001
C           -2.32393483742076       -0.49500603133790        0.84097049386677
C           -2.83255379004228        0.68947228010490        0.41849865100355
N           -2.37919596684912        1.40552063618639       -0.63288877165683
C           -1.17175698936967        1.54377081083603       -0.98024091513756
C            0.00653726722823        1.08444688784944       -0.21438751226916
C            1.00935678051593        1.88615775825554        0.18863113243272
N            2.10579297955065        1.54119563680564        0.92103155649286
C            2.69729049776433        0.40659954544510        0.82806879677947
C            2.42749923980290       -0.68815978955763       -0.05473632687693
C            1.20613431326005       -1.01303211325486       -0.55391728202767
C           -0.02653518784147       -0.36009753959575       -0.06166251739596
N            1.03420435468995       -1.94066397159442       -1.53879029038009
H            0.12654454029148       -2.35982910465293       -1.64669959548846
H            1.83120427860265       -2.45599101624124       -1.87154141029693
H            3.27717907599412       -1.29861435231664       -0.33730992577286
H            3.58878044055501        0.31394717673434        1.44408694149542
H            0.93257839864167        2.95432698806476        0.01904182819303
H           -0.99014675012764        2.00643971828851       -1.94660815784508
H           -3.78504515321036        1.03440048624985        0.79895808680149
H           -2.93625573209736       -1.10186780335063        1.49672087981995
H           -1.66751149065182       -2.87311090197607        1.15730959540730
H           -0.04433208578332       -2.79609379739848        0.76846742616133
