19
 energy: -35.550145813562 gnorm: 0.000517265652 xtb: 6.6.1 (8d0f1dd)
N           -3.09461549579788       -1.24173005527246       -0.92455222431623
C           -2.15237371151822       -0.55740717579280       -0.24881308457742
N           -0.98574283588575       -1.17388367902858       -0.12255923328009
C            0.12398958768466       -0.60646828921889        0.26895637170490
N            1.07854629200932       -1.17664591855038        0.95033066362021
C            2.36409015927564       -0.92044015672172        0.91953812200308
N            3.06490683923708       -0.42826605824223       -0.08227777616766
C            2.46799204236463        0.29425117273248       -1.02023931071279
N            1.36992218930437        0.99019138009569       -0.92350455475810
C            0.38043672192602        0.83737208394995       -0.07195008118724
N           -0.36196099286364        1.77435368972930        0.42966222592969
C           -1.62736355200770        1.62048301356930        0.81042975457507
C           -2.51658030708326        0.65824355797195        0.39929417951146
H           -3.57205069412296        0.83088736639674        0.55900886663964
H           -1.99848080463157        2.45208167819270        1.39842736263132
H            3.02757135082638        0.43415285311131       -1.93895917264790
H            2.93149587863672       -1.29893594011055        1.76274563499042
H           -4.04235576033266       -0.91492342372302       -0.96325530542024
H           -2.86216226722074       -2.14795203258874       -1.29167242983797
