24
 energy: -38.125955699573 gnorm: 0.000610668034 xtb: 6.6.1 (8d0f1dd)
N            1.73520934290213        1.85283555417200        1.43822969037059
C            1.59941568875918        0.87322944485700        0.50010139994465
C            2.66962240028660        0.16044886754019        0.05697817510395
C            2.63659115106769       -0.89069677965336       -0.91085475293319
N            1.70314453487059       -1.73005513065627       -1.17818570274029
C            0.48337517089073       -1.71746276313719       -0.57097931917165
C           -0.21442503472577       -0.65700357090091       -0.11989040763222
C           -1.56894179834157       -0.80672299825413        0.48554085268390
N           -2.63512555604484       -0.23324557297046        0.07787988658318
C           -2.71286054510448        0.79034574090177       -0.80357220691044
C           -1.80470529590484        1.78091339380284       -0.97915375944006
C           -0.48227548346673        1.79966115694872       -0.44303186337913
C            0.24919449279960        0.71984912774264       -0.07694116402665
H            0.00561206280073        2.76691207188815       -0.40682764625441
H           -2.10900759030645        2.65533342019064       -1.53819891891857
H           -3.68654220786713        0.86378120842441       -1.27290493193968
N           -1.61807673524252       -1.58451674444246        1.60026723343038
H           -0.91120016342593       -2.28829615429553        1.72718708096339
H           -2.52699332621367       -1.75681772093760        1.99760733148145
H            0.01639755242794       -2.69792107319089       -0.56262403715145
H            3.56667250569443       -1.07395363294869       -1.44386846565482
H            3.64928884231957        0.44096964132319        0.42540907723053
H            2.56721338970013        1.88612039083191        2.00216820807177
H            0.90708213762455        2.29549761816421        1.79638599938878
