22
 energy: -39.502503781070 gnorm: 0.000923594917 xtb: 6.6.1 (8d0f1dd)
N           -4.58449917810156       -0.10744715512343        0.81560923985125
C           -3.45611621148787       -0.20742606019881        0.61547321477412
C           -2.07898032677295       -0.28061065988375        0.35159104586115
C           -1.40940443399344       -1.46758633701027        0.58631174993368
C           -0.09255790119480       -1.79735916398800        0.25727729737936
C            0.94206149072977       -0.92679160974001       -0.03834267473520
C            0.80197498595670        0.51823481682718        0.22017464320435
N            1.71402642993462        1.15339805565207        0.90214100392701
C            3.00094671899061        0.93495928770047        0.99317189233628
N            3.78115279004727        0.32480102162346        0.13620849678150
C            3.34354454810363       -0.62864719997868       -0.68508397542170
C            2.15137239463340       -1.32158431422793       -0.65984676668241
H            2.10333401945484       -2.23963020838412       -1.23362255894319
H            4.11485837903237       -0.98666304997858       -1.36053072367903
H            3.50007413630614        1.43613061147182        1.81715962809586
N           -0.23212353598749        1.19119507461539       -0.25103089748354
C           -1.48484920690398        0.85631149346441       -0.32828722735250
N           -2.29528766944015        1.64773851551854       -1.05198260658248
H           -3.29324192814123        1.52839534990110       -1.00946941106923
H           -1.90864685403955        2.47781948701785       -1.46756083453647
H            0.15518361919741       -2.85131833404421        0.27786288405583
H           -2.01825026155293       -2.27500977399556        0.97698645658663
