21
 energy: -34.968688062793 gnorm: 0.000839991537 xtb: 6.6.1 (8d0f1dd)
N           -1.35686546032787       -1.97213893447730       -1.32572784580734
C           -1.29381038984663       -1.07202747723694       -0.32670744168806
N           -2.36823048580847       -0.63136199836606        0.22068062051014
C           -2.47944108347930        0.50393724022141        0.93365568706540
N           -1.86695838017816        1.62106762794654        0.75770668744385
C           -0.75522249601970        1.74545335570908       -0.01228957863288
C            0.18245882554222        0.79794041650094       -0.25013774135438
C            1.42377605458883        1.03499519821795       -1.02208777076254
N            2.59427868548274        0.77163400283872       -0.63072883925289
C            2.96314930759791        0.09409011482322        0.48183899405781
C            2.32323873834326       -0.99016186083120        0.98701775544262
C            1.01437105067975       -1.41479284059854        0.59976693470071
C            0.06180637106034       -0.60640649140529        0.08535447288670
H            0.75155989001085       -2.44577628117618        0.80449147086814
H            2.85219351256482       -1.62127741136492        1.68776511123328
H            3.95247601397619        0.35820461899625        0.83215776609988
H            1.32186273554448        1.44695104020004       -2.02266547859226
H           -0.57114895708266        2.76099027495520       -0.34448009562879
H           -3.31226616932192        0.51100886053618        1.62802739912397
H           -0.52957947378312       -2.44777707695108       -1.63843125461626
H           -2.25579279395485       -2.25766243334141       -1.67411362287776
