24
 energy: -43.737987780077 gnorm: 0.000762474705 xtb: 6.6.1 (8d0f1dd)
N           -4.04228685669075       -0.68688943655068       -0.53187031008851
C           -3.00794189327254       -0.20958702196766       -0.38885289374696
C           -1.74170973227713        0.39314089143542       -0.23221055587235
C           -1.62077727451522        1.72901701968521       -0.69545297880356
C           -0.63929136948745        2.63261917967970       -0.42838294768450
C            0.51060610338583        2.36135658822565        0.38761494166387
N            1.09686802357045        1.19984492328518        0.49535176336673
C            0.66923948289862       -0.00438752281798        0.16073590677108
C           -0.72956450777887       -0.40391852278513        0.30887939801817
N           -1.01263704592824       -1.50559789252990        0.99118513459700
C           -0.49006067657170       -2.68038464747956        0.98554620038298
C            0.47896898651141       -3.15444638250990        0.07502435087815
C            1.39738572802857       -2.33616195073907       -0.53171334253490
C            1.57613007291057       -0.94628736190465       -0.35997372148036
C            2.78289727373845       -0.40542351241833       -0.85609843086384
N            3.76744112481573        0.02219310280902       -1.26307876382527
H            2.16584911303011       -2.81621842519678       -1.12693542509046
H            0.57093256561391       -4.22228911982353       -0.05427148626233
H           -0.88153540226112       -3.35977638691085        1.73524134189101
N            1.08933965715319        3.38865022944182        1.03382329361786
H            0.79226663792654        4.33308412883022        0.87003198821131
H            1.94041830538705        3.21900398195357        1.54193638271525
H           -0.76491505802298        3.65016951714644       -0.76932984393925
H           -2.47982644766225        2.08897172944315       -1.24965264092004
