28
 energy: -50.640532528413 gnorm: 0.000519978050 xtb: 6.6.1 (8d0f1dd)
N           -2.21055772666693       -3.23940061269439        0.26860736468467
C           -1.37423069541146       -2.45061935801086        0.21194236891575
C           -0.31586011222652       -1.52765023915659        0.17390407548847
C            0.99263426300128       -2.04681351768296        0.42491884986259
N            2.14378945585550       -1.53752542084799        0.05097603476327
C            2.39368174000270       -0.31285943700129       -0.40647399637213
N            3.59870233848746       -0.20133282867124       -1.01128730351679
H            3.96822289852518        0.70619660517672       -1.23760413042318
H            4.21129767299238       -0.99724782076562       -0.98664129345883
C            1.62092544181077        0.85465679718929       -0.22569110744443
C            2.28378170081407        2.07096523669919       -0.44552625264159
N            2.86140665718025        3.04890857566271       -0.64026138930796
C            0.24921319961268        0.92689531865381        0.15397432530141
C           -0.66044789782314       -0.19386106895744       -0.08348750036192
N           -1.86500260507963        0.01316118926095       -0.58400337411563
C           -2.74211588319502        0.96749742400860       -0.46294513508379
C           -2.71378719357102        1.97448515933074        0.54669475169161
C           -1.54659197139834        2.44879619756624        1.07699929335899
C           -0.22989348540319        2.07555175617376        0.76421240960354
H            0.53313683970921        2.76773481130213        1.09963533480030
H           -1.63279990700715        3.28611828635626        1.75900625913068
H           -3.64777043987657        2.45058432115244        0.80782974098654
N           -3.77462146370561        0.94870198064531       -1.33673651971580
H           -4.58213928314346        1.52186516921912       -1.17399392757101
H           -3.85352980417288        0.16375223770087       -1.95970910904012
N            1.07646584893691       -3.25318958637973        1.02532280666411
H            0.24435866804758       -3.79217223937559        1.19375123222876
H            1.97734486342360       -3.69554718395936        1.07523313128104
