27
 energy: -46.897448863772 gnorm: 0.000820520695 xtb: 6.6.1 (8d0f1dd)
N           -4.58548399643973       -1.59603740165152       -1.63264143533717
C           -3.75423675409747       -0.98427336030498       -1.12915252919044
C           -2.72505997638393       -0.24982802349229       -0.50547233718834
C           -1.76247683675140       -1.01118279642780        0.24201135296880
C           -0.50037903139594       -0.63354401491083        0.55976601459205
C            0.35784339492148       -1.55158263640032        1.30484101031269
C            1.65336167188623       -1.79755218197820        1.07817081841833
C            2.51517378062466       -1.21937356043275        0.06548197000920
N            3.62106117796776       -1.95315986978381       -0.24048210050071
H            3.66399543914716       -2.92046922126512        0.02584883256095
H            4.21770862306208       -1.64362100082225       -0.98948414728000
C            2.34827220185357        0.03782515046931       -0.47146398373300
C            3.33466083850444        0.51940359650315       -1.35118536718015
N            4.14966174720467        0.90057814743530       -2.06774506061696
C            1.30144135372034        0.97358327693198       -0.13277484367954
C            0.06059504643263        0.68362223214048        0.28839456795885
C           -0.88641414557804        1.77444624689058        0.66196484164621
N           -2.03164723676361        1.97407615640441        0.12122453558299
C           -2.73795785624814        1.11569147189169       -0.62587584834333
H           -3.48267498075293        1.59056452951069       -1.25262220250979
N           -0.47585903705407        2.59201709089950        1.65285847145832
H           -1.08195118279815        3.34082687292988        1.94109088501165
H            0.48499834313404        2.59637879821776        1.94299887536148
H            1.55120671461861        2.01386403915621       -0.30919139297928
H            2.13751089541397       -2.55773987915945        1.68004976148808
H           -0.13425003260455       -2.11524393881088        2.08884783791544
H           -2.05586818072259       -2.02646475183883        0.48195398435656
