30
 energy: -55.653044818974 gnorm: 0.000657494934 xtb: 6.6.1 (8d0f1dd)
N           -3.86799940273420       -1.01947089847248       -1.16461618025392
C           -2.78887847646475       -1.19407716140847       -0.81539240752228
C           -1.43002428242340       -1.43580252825869       -0.49370417164207
C           -0.97092251353844       -2.71883237201746       -0.88212636585978
C            0.17659495994474       -3.34780644399873       -0.49514160368714
C            1.15765175968525       -2.80914666227161        0.35942369974247
C            1.38590560729184       -1.48878551661918        0.62348197318630
C            2.35938992175917       -1.17000644452899        1.59801091341331
N            3.10912062196835       -0.91461809051507        2.42860726074593
C            0.72642976245096       -0.31981079926074        0.04342446565641
C            1.50043304402477        0.74791680535290       -0.32617938287063
C            2.89503398862287        0.53245279828054       -0.42626832287237
N            4.02282387791306        0.40086279841094       -0.59961777649251
C            1.06693169514381        2.08031916187712       -0.71795064998867
N            1.93388493710613        2.78378694215070       -1.48464206398256
H            2.85540989618604        2.42219237935840       -1.66518733318462
H            1.76371225833100        3.75766781913107       -1.66357354461974
C           -0.09151024660609        2.67513840857584       -0.29263888904995
C           -1.14961988062726        2.11873685901058        0.46963004569462
N           -1.98972951984926        2.99713178554087        1.05941607820417
H           -2.81403243234235        2.66404619913099        1.53151348416378
H           -1.87700826451134        3.98437585932825        0.91897729148171
C           -1.44684890218224        0.75458363376236        0.57270549340536
C           -2.59675812822046        0.40834979541526        1.30809672832835
N           -3.49998491946114        0.16826714828569        1.97840944521940
C           -0.71926549475373       -0.34904074838438        0.01480471976293
H           -0.19972999371644        3.72744042103985       -0.52566236084271
H            1.82272682457915       -3.51511712905600        0.84178637672050
H            0.30617952185322       -4.38011025291350       -0.78757986976038
H           -1.67713483212956       -3.28912815484620       -1.47330100579524
