29
 energy: -56.724594469062 gnorm: 0.000718607467 xtb: 6.6.1 (8d0f1dd)
N            5.39755141662649        1.66745265118696       -1.04951601972311
C            4.37746351520675        1.27924730418779       -0.70037492858611
C            3.11038785934227        0.81574544606478       -0.26981058934326
C            2.45271484995584        1.61619462824708        0.72621050544750
C            1.14230039502403        1.62858678269830        1.02369522914860
C            0.07468215480993        0.85510903679984        0.40616382712508
C           -1.12441254779335        1.48257396303396        0.16563022698354
C           -1.15936532877083        2.88170794865484        0.38157429791296
N           -1.22216516763853        4.01612492697935        0.54278483786916
C           -2.35534845891887        0.93670798222799       -0.37431549426461
N           -3.17387752168443        1.80119613622366       -1.00197944095484
H           -4.08375903242692        1.49505033210368       -1.30805092667392
H           -2.95303280694376        2.78255759463391       -1.04355319382991
C           -2.76501154015291       -0.38165565744835       -0.18017411642753
C           -4.07763213459858       -0.71271401483560       -0.58171217108749
N           -5.14735281517577       -0.95907928477302       -0.91739375195365
C           -2.03836626560647       -1.40053013452361        0.48292362852976
C           -0.69045986551546       -1.48198884787547        0.66500735635057
C           -0.19022506888518       -2.57651806327510        1.40935572742844
N            0.20825650221730       -3.42236303955620        2.07318899269822
C            0.32695999222622       -0.54951105819171        0.18850871659858
C            1.47978629194336       -1.06213505515385       -0.37202016698227
C            1.46294281468899       -2.43371500600333       -0.74230233079112
N            1.46945964170000       -3.51552394165027       -1.11942894805120
C            2.66567289329597       -0.37808173208164       -0.76014300585155
H            3.31482216495270       -0.91832651973372       -1.43910704811044
H           -2.62685343241344       -2.24269088626616        0.82817272374612
H            0.80762559177905        2.31859870215966        1.78918756313237
H            3.09384530976881        2.31384662904973        1.25001965257648
