29
 energy: -44.719467228424 gnorm: 0.000581040411 xtb: 6.6.1 (8d0f1dd)
N           -4.04045800510556       -0.35734252309179       -0.83350588279330
C           -2.69692571931755       -0.42935970391147       -0.47091178237069
C           -1.94325789156726       -1.47780647448090       -0.89406618539613
C           -0.61760781118283       -1.78241334161028       -0.45569430130755
C            0.30929683617212       -0.89945668779527       -0.04282589223601
C            1.62978389895653       -1.33134788761381        0.48654326584790
N            2.76358742926912       -1.03132461159141       -0.02500172242974
C            2.95149724846483       -0.09671723264389       -0.98717260106663
C            2.26052232862385        1.05315627691211       -1.15497433548118
C            1.05646989883307        1.43526589747277       -0.46535612468427
C            0.15026257295230        0.54608102060892        0.03230830272035
C           -1.04235088393865        0.96883748454594        0.78953776284261
C           -2.29357519507851        0.54162505304067        0.51406937726278
H           -3.10787918458652        0.97676043243101        1.08264740904269
N           -0.82278551576770        1.90154608108208        1.78732066914248
H            0.13601487472879        2.02431480378432        2.06862817429875
H           -1.49921264650386        1.94038430848274        2.53346274754893
N            0.84391343874046        2.81266148546940       -0.34569229401054
H           -0.12041435796612        3.07790328987571       -0.20832594763671
H            1.30592622456248        3.35959084874260       -1.05698421696063
H            2.67609759822349        1.79713243733728       -1.82385067703984
H            3.85150378479352       -0.26650569383572       -1.56637245333616
N            1.58925507116516       -2.05684301881985        1.63797322776556
H            2.46236712582420       -2.42170877431772        1.98188895105950
H            0.75100183660644       -2.57264286955139        1.84421104839136
H           -0.33310571523580       -2.82816273158686       -0.50770490834559
H           -2.41400038197782       -2.20746996132864       -1.54148178160166
H           -4.29115773388517       -0.89834475396325       -1.64662331592805
H           -4.44234249970405        0.56725194785700       -0.82637373759684
