31
 energy: -54.583945750618 gnorm: 0.000981731537 xtb: 6.6.1 (8d0f1dd)
N            5.78737391693787        0.02296347934138        0.24690945110852
C            4.64085639224469        0.05388331237367        0.14987386848774
C            3.24119251773336        0.12066136818560        0.04684291735013
C            2.58486250346795       -1.03120387412862       -0.37522152021260
C            1.23407523081697       -1.31186504549917       -0.42657613874767
C            0.95936491681207       -2.61824565664874       -0.88878970608027
N            0.76791552200372       -3.68010008388877       -1.28585158562872
C            0.07591240202318       -0.52167655515208       -0.07372643943529
C           -1.04402656735234       -1.26430529056059        0.24770449583868
C           -2.40215748583691       -0.94495234049346        0.44196075120857
N           -3.17582075552852       -1.93631797415738        0.94269138204346
H           -2.79066742540565       -2.85375605017129        1.08035329940132
H           -4.17348335376626       -1.81917919208493        0.99852380954821
C           -3.03252951630216        0.26175439991617        0.10200213092046
C           -4.42859864017455        0.31073798966926        0.22202054708166
N           -5.57678946852544        0.35078945044147        0.31766292720717
C           -2.38463866288911        1.43873938282611       -0.37492864959994
N           -3.20443358795864        2.44002670007419       -0.78511902678959
H           -4.20246433066384        2.32960710654211       -0.74809684653084
H           -2.82338531086041        3.31439610621205       -1.09681050797384
C           -1.02455799868277        1.69835295410160       -0.38061998783992
C            0.12143622937746        0.92566135211702       -0.09915066220641
C            1.27876673910813        1.68156685643394        0.13094485884904
C            2.62424071899200        1.37232959884688        0.31380430186804
N            3.44034443174824        2.37881984851757        0.71281314353780
H            4.43111255083720        2.22432230216172        0.78740018378581
H            3.08109240806277        3.30639877125394        0.84627796645795
H            1.08276073223937        2.74425106050832        0.23639628960656
H           -0.79781374834716        2.72734038610061       -0.64116369310108
H           -0.85331850127762       -2.32466001292449        0.37557190331119
H            3.23561218776790       -1.85135990091504       -0.66199984106775
