24
 energy: -43.735684323960 gnorm: 0.000840000397 xtb: 6.6.1 (8d0f1dd)
N            5.10114385289802        0.13696695440647        0.77051685945757
C            3.97326528598244        0.20778707407221        0.56990489777658
C            2.58694558012795        0.28893506897850        0.32955247975813
C            1.87741031638663        1.35392896724187        0.86805502177476
N            0.70057451208658        1.76322508433013        0.45932275733080
C           -0.31596017905946        1.19204880714746       -0.09487596180686
C           -1.26723858356552        1.98164525560777       -0.80426007230179
C           -2.60343319501142        1.71485012437260       -0.88912486793631
N           -3.34073997504140        0.86007554868188       -0.17906810993087
C           -2.93365159740738       -0.21566395843393        0.43805272847299
C           -1.67366344192578       -0.88764586806473        0.22639549623323
C           -0.50645485586947       -0.26832130378406       -0.06949055363666
C            0.64749830988688       -1.02699198749149       -0.53804355435128
C            0.30276577440322       -2.17900915544403       -1.28043546323037
N            0.01183923171754       -3.12624323218431       -1.86055564184681
C            1.98478978233925       -0.75054350130506       -0.42188580520645
H            2.66361962144906       -1.46405100337510       -0.87591843577109
H           -1.68187948921955       -1.96713285969348        0.31378423287678
N           -3.82775838647848       -0.81744659227821        1.24388465131996
H           -4.74366132307711       -0.41204160518728        1.33163930295547
H           -3.63915861076890       -1.71462854911461        1.65300657059986
H           -3.21376742764111        2.36756165185566       -1.50485268135076
H           -0.88874079439615        2.88731138602571       -1.25687805339986
H            2.35649424758563        2.00483438973784        1.59082638441080
