28
 energy: -45.798637413171 gnorm: 0.000491816112 xtb: 6.6.1 (8d0f1dd)
N            4.86966184167457        1.13168490115113        0.90746224935035
C            3.83784712711470        0.79695896368541        0.53030692866837
C            2.57151202968365        0.37460748886861        0.06757887232294
C            1.48044400505233        1.06457919630275        0.47661719432909
C            0.11170153899735        0.80050409855434        0.09304052270213
C           -0.72778264792012        1.84658798775171       -0.12124470366197
N           -1.99725460743313        1.83998868493989       -0.58760551431071
C           -2.87137405409437        0.92164635008808       -0.33778183269092
N           -4.07722005025191        1.02766476670931       -0.97211187744736
H           -4.23971018463132        1.88565855361732       -1.47249307062690
H           -4.87726690424906        0.56840085808857       -0.57341849545357
C           -2.73096707819256       -0.16072309553778        0.61339549653537
C           -1.57586744972131       -0.82226287232584        0.84413217413077
N           -1.50161471257228       -1.81646481837453        1.78955121284550
H           -2.18025397052221       -1.81209532758559        2.53321242104756
H           -0.58607589572738       -2.16113042990513        2.02254755088201
C           -0.34230562307365       -0.59825036436743        0.05349738029598
C            0.29886413522983       -1.63350417221198       -0.53784415142303
N           -0.22351508698922       -2.92735708120165       -0.49937300973067
H            0.08939121250733       -3.52685423996074       -1.24759887829548
H           -1.21753474786807       -2.98157687237151       -0.33597350840458
C            1.59296842975970       -1.54402086244041       -1.19568860840265
C            2.59393493420541       -0.70621107028612       -0.90387398919945
H            3.54010519908976       -0.82960801986860       -1.41623230727238
H            1.78254267072412       -2.31908697371897       -1.92939868092419
H           -3.61525067193816       -0.44116466010142        1.17331367289520
H           -0.32226058424160        2.85058263011453       -0.04486201864225
H            1.64178966138744        1.92704742338656        1.11631451118088
