23
 energy: -39.210925647509 gnorm: 0.000598507949 xtb: 6.6.1 (8d0f1dd)
N            1.37249473769600        2.90640058892185        0.99801875243400
C            1.19907446679284        1.83679538089356        0.61270942240201
C            1.02856430100287        0.50956605664066        0.17693458384332
C            2.16207761741438       -0.29588239257545        0.09561489392878
C            2.20377700094388       -1.62129856620526       -0.43821587177394
C            1.17655712409060       -2.49548993181461       -0.60828214845758
C           -0.18122832002907       -2.33282467126640       -0.25907281795885
C           -0.84655290643153       -1.16413386569605       -0.01662369064050
C           -2.12460960293041       -1.14654233501165        0.64571376033702
C           -3.09493036000039       -0.18806052805636        0.62064258398243
N           -3.26377269327624        0.83288914613136       -0.24303769842264
C           -2.30097666561937        1.23994136906362       -1.01060660347223
N           -0.99995029901155        1.09785874703418       -0.82663871512015
C           -0.30051257157708        0.17432713931679       -0.25753010023585
H           -2.57196849624311        1.90306186246829       -1.82590673880804
H           -3.94352822331712       -0.31418090732292        1.28494856586979
H           -2.28729264262891       -1.98854020815485        1.30888303832451
H           -0.76057900851522       -3.24467550931512       -0.18429710787718
H            1.44432010688112       -3.48182098140586       -0.96725429136367
H            3.20023622746056       -1.98031194852245       -0.66435761232516
N            3.34920764244332        0.22102432036328        0.48963078912834
H            3.40284160051055        1.17837134081962        0.79547296471699
H            4.20174343994397       -0.28483489690601        0.33017550328886
