22
 energy: -34.694396855927 gnorm: 0.000729013817 xtb: 6.6.1 (8d0f1dd)
N           -3.18173124236311       -1.21480751437030        0.89608046254894
C           -2.22045359530688       -0.51969624577642        0.23255482894582
N           -1.03877643690603       -1.06953991619555        0.20959765359184
C            0.15652683958308       -0.62480240673641       -0.17108713916929
C            1.09689875712734       -1.51497179371171       -0.66233994658910
C            2.48278986212431       -1.36324619409384       -0.67052218996466
C            3.24561792165245       -0.42334458231465       -0.01582600486675
C            2.80393003628033        0.69313050579694        0.71363189327114
C            1.56180129786971        1.26032054206554        0.74125822575111
C            0.41075789374799        0.80883356872186        0.03998100969279
N           -0.43452929136617        1.68240456354675       -0.41369770456087
C           -1.67289153716188        1.56791803707474       -0.88058058510759
C           -2.60572776240412        0.64525073794203       -0.49981438096737
H           -3.65245501166474        0.80300851023947       -0.70998166320052
H           -1.96507578213857        2.39497702356892       -1.51965722306081
H            1.44418434494213        2.20737703160641        1.25181092040935
H            3.57718555384901        1.22045089438814        1.26035470738071
H            4.31767454619663       -0.57001329275531       -0.03984940821641
H            3.03040842703169       -2.15485429307783       -1.16873713962992
H            0.70265357524282       -2.45507926158387       -1.02645155578823
H           -2.89446140902321       -1.99368883199374        1.46226127916528
H           -4.07970126081278       -0.79903562034132        1.05985373346485
