28
 energy: -54.670149755457 gnorm: 0.000493122110 xtb: 6.6.1 (8d0f1dd)
N           -5.12944485254000       -0.18143503480349        0.09716433663878
C           -3.98361708918897       -0.07415648880311        0.04027655436283
C           -2.59435616566513        0.06192069028351       -0.03316644243121
C           -1.85611543822468       -0.82552102864103       -0.86268258333928
N           -0.58157336615851       -1.11268498183257       -0.69781413929938
C            0.39318316954163       -0.40764714495710       -0.18026658192150
C            0.27221834193989        1.07633669215425       -0.12354578292486
N            1.17556342328721        1.86771978885946       -0.65531939702735
C            2.45534954825536        1.57546857695615       -0.79261943340449
N            3.19395335328900        0.77292465982216       -0.02448702181576
C            2.76778205594872       -0.30807382801711        0.59563213490464
C            1.53838104524791       -1.00560238374747        0.35720592429334
C            1.48291764231156       -2.36189339018824        0.71413109890534
N            1.47853363780932       -3.46728990596917        1.03331803009434
N            3.64629809047527       -0.86603946975730        1.45374514928629
H            4.56754026519434       -0.46872417717487        1.51238894287214
H            3.47443931500293       -1.78619899270170        1.82226805551892
N            3.14037665877372        2.28919634445691       -1.70906710042922
H            2.67216861608240        3.05468206795264       -2.16071141938575
H            4.14403936959993        2.26525227225555       -1.67780070683697
N           -0.76784198624024        1.57860478085374        0.48370819870550
C           -1.95479712737922        1.06017719944584        0.74350673985773
N           -2.63037163843765        1.63220800741946        1.76646753913678
H           -2.23754374948705        2.45641909353303        2.18671664045246
H           -3.61233634547955        1.44467449865414        1.87685166027174
N           -2.50728118434006       -1.53797357392780       -1.81199036067164
H           -2.01409414095602       -2.30372991222354       -2.23840028367479
H           -3.51331628556068       -1.55506644220516       -1.80608116084422
