26
 energy: -51.993111631124 gnorm: 0.000769799263 xtb: 6.6.1 (8d0f1dd)
N           -4.87377233331091       -1.27901700254657       -0.64697136720169
C           -3.75813760215308       -1.01645940571898       -0.56870794228720
C           -2.39813366282677       -0.66880706831156       -0.45980075707345
C           -1.47177380293494       -1.45407758005333       -1.14876309676167
N           -0.20119070376471       -1.54623967791959       -0.89220971273970
C            0.62827678621349       -0.75763974301799       -0.26482307133679
C            1.73393218939894       -1.28649600143151        0.44624606651212
C            1.64276402184371       -2.63792840314307        0.84410253144654
N            1.57866945247959       -3.73183225447330        1.18359332229372
C            2.86780218883989       -0.56954534146081        0.86206042836878
N            3.33831819136290        0.56463157390543        0.42118910715832
C            2.68255684775893        1.36381777705573       -0.43594802585092
N            1.37639807037454        1.55519088182731       -0.48289149184509
C            0.42445009713522        0.69847667046304       -0.20761928674147
C           -0.83299928882820        1.17960766390323        0.22240853236840
C           -0.80902427972827        2.50101628387786        0.71951063878250
N           -0.82717032955115        3.57365533197518        1.13002958002698
C           -2.08086095022692        0.51123985795584        0.27575758046263
N           -3.08093722439895        1.10632696776429        0.95145059930421
H           -4.01090203821064        0.72138301655127        0.91519172885676
H           -2.94001121326731        2.01040032662203        1.37249020618982
N            3.44652287073484        2.16418571534654       -1.18990717772879
H            3.01399649854292        2.89385134152370       -1.72902308423834
H            4.43996109411219        2.16493756808159       -1.03762566470366
H            3.51980776222881       -1.06499573123292        1.57528678139843
H           -1.83939956456011       -2.15875952102394       -1.88619058377584
