24
 energy: -38.936874666285 gnorm: 0.000471523657 xtb: 6.6.1 (8d0f1dd)
N            4.53838157364054        0.10892413203715       -1.07050632905456
C            3.43402746397771        0.20868771706422       -0.75707404052829
C            2.09064513330910        0.26630549979937       -0.37491317218392
C            1.54254865538988       -0.88263263759616        0.33278698959014
N            0.29383945249404       -1.19344557755850        0.39395367601435
C           -0.83245081415388       -0.57722580147988        0.00400303724286
C           -1.81427056072341       -1.41992177701895       -0.50833087715372
C           -3.17982620677668       -1.20917445922834       -0.67925012940490
C           -3.94833335530129       -0.17342534332516       -0.20329982572174
C           -3.49224824272770        0.96697903578694        0.47673987156610
C           -2.21349415866888        1.42164893595007        0.62673060902961
C           -0.97898902968508        0.85094404425072        0.19828548218563
C            0.08387238630937        1.72198182124685       -0.03623047303960
C            1.39011966084979        1.45535471580651       -0.44392808795875
H            1.95484626185763        2.31078464865818       -0.79825262167370
H           -0.17285650000727        2.77378074583672        0.00557050299363
H           -2.10772608328548        2.39401530781441        1.09558945726996
H           -4.26971256702446        1.60992255753508        0.87260103685229
H           -5.01817578946533       -0.24732058626181       -0.34459309718040
H           -3.71181116169745       -2.01228922497575       -1.17505396973444
H           -1.44396841210557       -2.40133816554130       -0.77830420097660
N            2.42002273857784       -1.67779988716020        0.97786089816698
H            2.07741597263824       -2.49548320527665        1.45059437788630
H            3.40803168668697       -1.55927061967718        0.83612671682237
