32
 energy: -53.485154515129 gnorm: 0.000630071653 xtb: 6.6.1 (8d0f1dd)
N           -4.27710681391013       -2.02309867428162       -1.59115551238847
C           -3.49665172039841       -1.39379449850453       -1.02343300967079
C           -2.56749889313995       -0.61203626211376       -0.32009188041977
C           -1.51849960841650       -1.33688359900226        0.34597686845493
C           -0.29771003016804       -0.88380862364784        0.69478915169211
C            0.62238380193260       -1.74993869393069        1.41942897500519
C            1.93238396062667       -1.89307156821823        1.18358784043022
C            2.69268897006394       -1.27818286294883        0.11753557477062
N            3.82990693523174       -1.94492036989387       -0.23671511184299
H            3.92582201376362       -2.91097893880901        0.02315981318517
H            4.33616594622948       -1.63373273625604       -1.04956841145046
C            2.39150906131862       -0.07061173603621       -0.46855355123771
C            3.24568076019831        0.38444787437873       -1.48616020844280
N            3.93894285830977        0.75057604001162       -2.33046012569602
C            1.34000844560864        0.85663934681844       -0.05836208461241
N            1.65576908273104        2.21458744682076       -0.22917399171811
H            0.86042392120796        2.79639973242377       -0.45480413364666
H            2.42572264285198        2.37250513212016       -0.86535008615367
C            0.15172297875687        0.49435343624065        0.47574706233571
C           -0.77333736560684        1.52070799085703        0.99811167305250
N           -0.23409764045715        2.34800815096124        1.94350034943763
H            0.76737629122348        2.43966952719991        1.96779323148400
H           -0.77420040977053        3.13433142789866        2.26350342126914
C           -2.07054396364327        1.63664979423116        0.62274450162575
C           -2.81696993103960        0.74449550294388       -0.21180957634553
N           -3.88573536406459        1.28950404297476       -0.87086458255760
H           -4.22908562495804        2.18592307057449       -0.57318304889074
H           -4.55239431496120        0.66099119361394       -1.28919439926313
H           -2.61866505925739        2.50016066042139        0.98405806508877
H            2.49322089740208       -2.60167488296058        1.78068575724431
H            0.18176690268028       -2.34961058705054        2.20756164370935
H           -1.73472040374645       -2.38450519353736        0.52186974775163
