29
 energy: -50.331532440297 gnorm: 0.000832252099 xtb: 6.6.1 (8d0f1dd)
N           -3.00584133657637       -3.50873961254810        1.29616931302651
C           -2.47880118913085       -2.57802021006076        0.87776024039537
C           -1.81409755838996       -1.44701401595948        0.35610906571388
C           -2.39950006031643       -0.23137982188148        0.52087679145469
C           -1.94259460268010        1.01164479543433       -0.02426207291312
C           -2.91908962347037        2.01397090104620       -0.17828135700292
N           -3.68807910951884        2.86108549728454       -0.29714345806971
C           -0.64627296187231        1.33374711740914       -0.37475346986806
N           -0.37469036583323        2.48764188582861       -1.02569597307438
H            0.57810523744072        2.80313286205071       -1.08815893077278
H           -1.11996274986891        3.13398291737773       -1.22989611331439
C            0.51225356461687        0.47782811981999       -0.08026222781460
C            1.61961890453697        0.99060984465064        0.52654382988060
N            2.75937842106904        0.31467628247645        0.86455853325056
C            3.29418666665456       -0.64780847090558        0.19779600686282
N            4.47023615425710       -1.14250404088926        0.66429260916588
H            4.75495850408432       -0.85695324990398        1.58568290082078
H            4.82186131542078       -2.01338889524304        0.30844287654435
C            2.83918716513897       -1.19764275475423       -1.07890403483910
C            1.55623999563861       -1.30854814170277       -1.42747813547973
C            0.42595611612246       -0.89461923130215       -0.58936451760252
C           -0.61162622383986       -1.72682443247643       -0.39775576553702
H           -0.54771649597768       -2.72811469534519       -0.80680357754540
H            1.30357771410473       -1.75703053690741       -2.38181039793685
H            3.61649965825959       -1.55755038767465       -1.74009070736198
N            1.66161077544702        2.31727410072125        0.96200776649264
H            0.79317190040946        2.67852705531553        1.33142476121228
H            2.43814868070089        2.46703716857191        1.59104093279839
H           -3.35788721402577       -0.19396623163394        1.02530680991468
