22
 energy: -39.502310803986 gnorm: 0.000901000985 xtb: 6.6.1 (8d0f1dd)
N            2.06392081276154        2.53819214067460       -1.69509019088773
C            1.83639229594991        1.57017541885833       -1.12107251336082
C            1.55001050121602        0.37350984308882       -0.43312212107949
C            2.44587114677842       -0.68220160002517       -0.54383670825256
C            2.43535476330098       -1.89458989040182        0.14360346538927
C            1.39786170243751       -2.37651704175213        0.92841706226737
N            0.13140024867203       -2.03032380453977        0.86840788785401
C           -0.38460526832056       -0.96149252321515        0.33409315403499
N           -1.56800733277397       -0.95962244249786       -0.23581828980720
C           -2.48391171938824       -0.02162658376529       -0.29430964499754
C           -2.57189273955420        1.07938131208254        0.61307756278909
C           -1.46492494663913        1.58617233268448        1.23725420558878
N           -0.20424441811152        1.37211136035175        0.87101084032691
C            0.32781307649016        0.34573277400020        0.30454083430469
H           -1.57117102331493        2.35952773465188        1.98816227400618
H           -3.53339380222853        1.54942319542753        0.75484362758196
N           -3.47235166097752       -0.21254814266719       -1.19146460728127
H           -3.42027743926870       -0.99940578550003       -1.81376705660698
H           -4.21572371614796        0.45395712188376       -1.28932026958697
H            1.58961496837873       -3.21554383781607        1.58808498613157
H            3.33421947891193       -2.49283881362935        0.09232453146469
H            3.32014448222844       -0.48130017039102       -1.15246986668249
