22
 energy: -44.305804255640 gnorm: 0.000706606112 xtb: 6.6.1 (8d0f1dd)
N           -4.76684677862538       -0.76745643384652        0.60895196178155
C           -3.63461371537452       -0.58052301370846        0.55931054200381
C           -2.25981723868350       -0.30396838752619        0.47277970649562
C           -1.83497541610053        0.78283256184518       -0.37572755605759
N           -0.72361444561820        1.45634765329317       -0.18756109883792
C            0.40429110783076        1.13377547280119        0.38474526070631
N            1.18840684122874        2.00246504898481        0.97050854922938
C            2.49352901640631        1.89533610701341        1.03639714649215
N            3.28951949737885        1.29445221252092        0.18512212225348
C            2.98861030396335        0.26205943056101       -0.57509486244913
C            1.92925616639651       -0.63372422689594       -0.42063451337429
C            1.95921427062419       -1.86587828200267       -1.10749079018643
N            1.97599544462787       -2.86005386799978       -1.67934196250559
C            0.75571031321141       -0.31877317197665        0.32136699662506
N           -0.05910095829788       -1.17736547591862        0.83323419883913
C           -1.33442189552683       -1.09206719405778        1.14251090768906
H           -1.67502052961381       -1.81869385962153        1.87006503957534
H            3.74539232472180        0.02107530571747       -1.31527800731506
H            2.98121523038569        2.50642088376531        1.78800748439981
N           -2.65928313371608        1.22049908055792       -1.33939255298389
H           -2.40771061205301        2.04364955894435       -1.86010077851387
H           -3.58609362666504        0.83890606450149       -1.42697742211561
