21
 energy: -34.977314625883 gnorm: 0.000556159161 xtb: 6.6.1 (8d0f1dd)
N           -3.33144818921397       -1.33212640534540        0.67025501618215
C           -2.29104314775064       -0.56831390919467        0.23899696877748
C           -1.03714079262001       -1.18750464944933        0.16703011637917
C            0.15646338906537       -0.57957389603983       -0.16861264627222
N            1.13016004813665       -1.23894728422252       -0.77362625468924
C            2.42058589463525       -1.08347782263675       -0.79223013595434
N            3.19763226990472       -0.47016052524153        0.08885435954935
C            2.64959416912049        0.42654149595151        0.89579795838713
N            1.54188248979146        1.08890188977277        0.73956149115896
C            0.44959473824730        0.85831158887568        0.03752225765326
C           -0.38393798109975        1.87287029989978       -0.40842420267782
C           -1.76001349044085        1.76257658671986       -0.56558720550209
C           -2.60253917006353        0.73267237877655       -0.20327405099536
H           -3.66317331590661        0.94670171284211       -0.26111441276160
H           -2.25644491100777        2.66058996548998       -0.91359977009770
H            0.05893418271953        2.85194121481602       -0.53019737050722
H            3.25986448336328        0.74171743670117        1.73702886264127
H            2.93743900457126       -1.63230003193270       -1.57449824193376
H           -1.01609831268914       -2.26518427638286        0.27327600335490
H           -3.19019205492896       -2.31208784780911        0.84048467346076
H           -4.27430952873361       -1.00860976159023        0.54608701114734
