22
 energy: -44.302783936977 gnorm: 0.000801978612 xtb: 6.6.1 (8d0f1dd)
N           -0.56965299758257       -3.08932419834977        1.67737583513566
C           -0.87095319473484       -2.15120762639417        1.09002860280365
C           -1.26273893657290       -0.97561031369183        0.41089539197728
C           -0.22555106556214       -0.05186792229813        0.07013598546540
C           -0.62755332588074        1.37280004813170        0.08512615799250
N            0.00070367284058        2.19514450273846        0.91185775750517
C            1.26208125049122        2.18717409572220        1.19918420075885
N            2.25580092438138        1.66491635784496        0.50172132543749
C            2.17339528445348        0.58169839425246       -0.24089386865234
C            1.09100635235738       -0.38825105259580       -0.18549618060171
C            1.42719904549778       -1.71351559910486       -0.52819992538327
N            1.76379423193579       -2.75562429331383       -0.87422762991089
N            3.23978017667159        0.28741974384103       -0.99373935270563
H            4.03481062826832        0.90393860864632       -0.95737419091220
H            3.31979587921307       -0.60738809481347       -1.44902328271525
H            1.56375304901276        2.79704389374398        2.04413590578456
N           -1.59131043251584        1.78222619625386       -0.68547976084777
C           -2.62105360883177        1.11250808264181       -1.13879800554421
N           -3.22501265948750        0.10229371366534       -0.56451051121691
C           -2.62885097632499       -0.75289873894028        0.24786008227490
H           -3.30531231525125       -1.45643536277623        0.72235014256814
H           -3.11317413417889        1.53429179049577       -2.00824426061379
