29
 energy: -55.945303684929 gnorm: 0.000670443540 xtb: 6.6.1 (8d0f1dd)
N           -4.94743325861413       -1.39113098068881       -0.76623679085684
C           -3.88355936502240       -1.00972756548524       -0.55693424993448
C           -2.57282813052853       -0.59290769576021       -0.27177132621741
C           -1.79643571821963       -1.40775157886344        0.63284088856609
N           -0.49707208991158       -1.44222148325575        0.63433305017160
C            0.46515169025441       -0.66604986681965        0.18072950350051
C            1.65187519661578       -1.32033033617709       -0.20822625061302
C            1.48698020220726       -2.69758865675857       -0.46996725240637
N            1.38320755712754       -3.81876136989105       -0.69860907049726
C            2.96465071917173       -0.80666327910244       -0.33764639166030
C            3.40259245883011        0.43571912294144        0.15866132511437
C            2.65098344773045        1.46943506658851        0.66069799369567
C            1.26730809148518        1.66517940525976        0.60593630486380
C            0.81598844073839        2.90566347923111        1.11486653550846
N            0.48479528140165        3.87966841823437        1.62359721851995
C            0.27842498553926        0.77465526092590        0.12886079748097
C           -0.91364145171507        1.27891241428643       -0.44083190127346
C           -0.85022686765653        2.60290611226245       -0.94225038535318
N           -0.82798982779273        3.63986329918959       -1.43251466397644
C           -2.11737002935186        0.62294397078175       -0.74050498144273
H           -2.81384477028538        1.19442223649469       -1.34393303983920
H            3.20577514805251        2.30444492701914        1.07176374541362
H            4.47536962382496        0.57883783395971        0.15312614088898
N            3.89703457018382       -1.61800579952964       -0.87789097637698
H            3.65445216860770       -2.55083179816891       -1.16809030920851
H            4.86201258195434       -1.33915600278664       -0.89753679665196
N           -2.44063161333926       -2.22239632023219        1.48257023629918
H           -3.43658398654335       -2.34455964023203        1.40869624680084
H           -1.90383882813977       -2.85211499641868        2.05430841308400
