24
 energy: -43.729060888941 gnorm: 0.000751961100 xtb: 6.6.1 (8d0f1dd)
N           -4.52534004668957       -1.37572280414781       -0.13136976520249
C           -3.41198567871317       -1.12565715494633        0.00987666230389
C           -2.05141634258491       -0.81035166092727        0.15891282904053
C           -1.23107511528237       -1.72120183774721        0.86219185438078
N            0.04381292642732       -1.83320648035299        0.77999163890988
C            0.98652116226966       -1.09460867410231        0.19197455062977
C            2.02156307397652       -1.75643227041364       -0.45578347535687
C            3.24068012685494       -1.20084560444528       -0.85076434722110
N            3.85744947549823       -0.16790187674700       -0.34838039214423
C            3.35612979837712        0.73981794675540        0.48033170760470
C            2.04528622178688        1.10371067185912        0.66997203401165
C            0.90043951448770        0.35723945496098        0.28624866318496
C           -0.31543615468604        1.01279846999612        0.05515371440429
C           -0.24907319593725        2.42033509552714       -0.02008584984764
N           -0.24137891954474        3.56848432400076       -0.08269921900473
C           -1.61186370084491        0.46875272308487       -0.23625034080731
N           -2.50615624710592        1.29204183249495       -0.81617623600403
H           -2.27948164439709        2.25997665394910       -0.97718967775015
H           -3.45738085045887        0.98471622593292       -0.94034579803974
H            1.86001872278820        2.06087444569681        1.14207715171417
H            4.12178915830055        1.35527937411690        0.94143359152151
H            3.83102294840227       -1.75185946341694       -1.57674533686226
H            1.83982094862478       -2.79814447329500       -0.68633949876733
H           -1.72026934884862       -2.45342032553296        1.49702300800283
