24
 energy: -42.954603352212 gnorm: 0.000395716502 xtb: 6.6.1 (8d0f1dd)
N            2.37415553029572        2.72841166873564       -0.89098529017508
C            1.92121437472730        1.73067584395426       -0.53536735102020
C            1.41313929239711        0.49553100681671       -0.10569828403721
C            0.06110249517389        0.47522862162410        0.34011100324761
C           -0.64149954834311       -0.81833432291524        0.30087922125962
N           -1.79712235952866       -0.94707134467558       -0.30910956838058
C           -2.80846301424360       -0.12217285827179       -0.40031166842070
C           -3.00396013672793        1.02856887665581        0.41738383201451
C           -1.98376720495074        1.78011162553264        0.93815941551756
C           -0.60192892053926        1.61067443652831        0.76643264770107
H            0.01635922153598        2.46552008943452        1.01164817938708
H           -2.27536833388789        2.68636371757267        1.45520026316045
H           -4.01833349367153        1.38636777840344        0.52615440461918
N           -3.76849358533194       -0.45140321703159       -1.29190926298066
H           -3.67319974989487       -1.30896597480027       -1.80633805946346
H           -4.64146544438382        0.04261118345682       -1.31035048373174
N           -0.12291875839143       -1.87561982795733        0.88368043745855
C            1.13105956706940       -2.17805080821402        1.07745823010535
N            2.19260924681814       -1.78352098902116        0.42088216669827
C            2.27340139479540       -0.62387362996615       -0.24107849984687
N            3.38610841925321       -0.49890187936918       -0.99717238514844
H            4.06662973866509       -1.23703943481306       -0.94338428916325
H            3.65370645852566        0.40015727849381       -1.36109745923325
H            1.30731364973863       -2.97043431457224        1.79928167533200
