22
 energy: -39.499260015142 gnorm: 0.000535302603 xtb: 6.6.1 (8d0f1dd)
N            4.91716184489422        0.81171712541544        0.72961448793509
C            3.84208352967804        0.52361932999964        0.44522520912948
C            2.51828759764110        0.18970849758543        0.10413477270726
C            1.89505212786126        0.95205983579101       -0.92425381961403
N            0.63687989697668        1.08356642958502       -1.13401882874282
C           -0.40000699343135        0.46732086503807       -0.54724550214105
C           -1.51990073190597        1.17969019523924       -0.18194915446727
C           -2.75836034976519        0.62335910113192        0.24160558859340
N           -3.28047474951872       -0.54047548204559       -0.12854144435170
C           -2.60810284801661       -1.46347679535393       -0.79235757085316
N           -1.34556078343526       -1.74840648618573       -0.74781462447581
C           -0.34802699890575       -0.97916239519257       -0.31565508006324
C            0.73062156470655       -1.54035882101212        0.36238234022658
C            1.94976786647161       -0.94905627276908        0.66843752046395
H            2.59062902882971       -1.50418977430471        1.34416995615405
H            0.56095984374733       -2.54194878776465        0.73492272681184
H           -3.22664664465688       -2.16503229548645       -1.34470874341710
N           -3.57923472153318        1.39868941106274        0.97460967048897
H           -4.49790728058423        1.05015001369114        1.18784493355724
H           -3.34082524770883        2.34968437837041        1.19073712567895
H           -1.42364115100846        2.25740631131387       -0.15845887024270
H            2.53766069226289        1.52586507739062       -1.58541258357797
