27
 energy: -46.882052900309 gnorm: 0.000513422734 xtb: 6.6.1 (8d0f1dd)
N            4.12367017766528        2.05732422071347       -1.67564457276234
C            3.42048529890342        1.35897426468620       -1.09722951470503
C            2.53966335619664        0.50680595668527       -0.39659704798754
C            3.01745126714256       -0.69835253261951        0.05036217064834
N            2.41763078726751       -1.41821021975846        1.01316824192944
C            1.17586038838620       -1.57014652359200        1.19009787443663
C            0.10613357848833       -1.16727390797162        0.24386438577129
C           -0.78217751117213       -2.04625670087625       -0.28191841433346
N           -0.66654703029593       -3.39878637216543       -0.01871076269967
H            0.22887132473460       -3.72399637294565        0.30810271918950
H           -1.12658108150247       -4.01798447248267       -0.66568314970255
C           -1.88078018942814       -1.66187636708379       -1.13695901465676
C           -2.54948026646356       -0.49557605295652       -1.10115994774354
C           -2.33308088284322        0.61212647177697       -0.20827558095951
C           -3.44725720781704        1.44963346761483       -0.00043958198479
N           -4.34321219093577        2.14568461829233        0.18446448602547
C           -1.15804775879682        0.95965034228338        0.41639460648043
N           -1.10824681289633        1.97281875288006        1.31302090379694
H           -1.94018014993098        2.50008966562598        1.52049224227633
H           -0.22352940160393        2.30499662058580        1.65211372140038
C            0.11360883826046        0.27955301589691        0.12448659060366
C            1.22267951085115        1.01955986256753       -0.13877306245918
H            1.10812016483860        2.09106248029598       -0.25265199204437
H           -3.41026740286160       -0.38514919072388       -1.74886157999041
H           -2.23733471530725       -2.42980949686229       -1.81144884822090
H            0.86520639066573       -2.00098115872842        2.13857194674989
H            4.02079233395462       -1.01698888783892       -0.19821482415805
