30
 energy: -54.075486349325 gnorm: 0.000982592831 xtb: 6.6.1 (8d0f1dd)
N           -2.41568210211929       -3.61680222351197       -1.35318320881295
C           -1.96556536443984       -2.63814359938199       -0.94642579436615
C           -1.43171011666329       -1.44793656124357       -0.42709007018115
C           -0.12305842772708       -1.56029289852658        0.16626756144087
C            0.76972867141695       -0.57363239426330        0.33610651122135
C            2.07224087533323       -0.82098941577159        1.00513682465711
N            3.22160219467869       -0.57816181141690        0.48429427458580
C            3.40871062359365        0.13043284703341       -0.66330313898563
N            2.78405818570473        1.20582860140207       -1.04326295044658
C            1.59303391887858        1.59774174716907       -0.54910709635106
C            0.60560137336167        0.84399885068961        0.01173368746253
C           -0.64564874427199        1.47532737138909        0.42322441575129
C           -1.89851175758812        0.93548368405270        0.20639522164666
C           -2.99965576902871        1.72205522943876        0.58669724844245
N           -3.89350138532532        2.37491545772788        0.90625608797225
C           -2.22992504328615       -0.32251927768511       -0.44008542971779
N           -3.45306364988311       -0.37092323980732       -1.03646990506557
H           -4.11704455205135        0.36503308527556       -0.86515695380562
H           -3.80260261914793       -1.26174360958158       -1.34894559820738
N           -0.52803904823713        2.66728701050861        1.05073910074853
H            0.37313973189429        3.10642386751897        1.11308941688739
H           -1.34986295914514        3.19622707755542        1.29342129632320
H            1.38581391751335        2.63972694109682       -0.77560395504355
N            4.47693478571583       -0.26787708102738       -1.39785102034329
H            4.80372672599141        0.36207421131216       -2.10936154733753
H            5.12741624811189       -0.90732727988643       -0.97715149164126
N            2.01374482984612       -1.31758520685528        2.25572858435532
H            1.15064582468323       -1.69085310582976        2.60900978341269
H            2.87308005748789       -1.51421920350164        2.74061078106517
H            0.16908018359609       -2.56954808178159        0.43440230472981
