29
 energy: -51.130501947165 gnorm: 0.000830091447 xtb: 6.6.1 (8d0f1dd)
N           -4.56755443207668       -0.72604873059210       -2.40749592065985
C           -3.87340606231164       -0.29328510476200       -1.60346194902895
C           -3.01402844598369        0.22094315876159       -0.60270777778353
C           -1.89026573261589       -0.62639155923710       -0.26270072955184
C           -0.72410718888564       -0.23659758269310        0.28626856848766
C            0.26274929402029       -1.26393179308004        0.66073459249885
N           -0.22395900790458       -2.29448901669895        1.38818986538848
H            0.38597490356953       -3.03043315781841        1.70347121401869
H           -1.19982791367844       -2.33305831792699        1.62170521238966
C            1.58616876382115       -1.23014283583013        0.28912001957879
C            2.36938171932561       -2.35634837262254        0.61144085073913
N            3.00636810449325       -3.27449999383218        0.88321663996664
C            2.27490662783745       -0.17705528045965       -0.43211772487871
N            3.35902028780600       -0.56034939423052       -1.16114141568560
H            3.73623285973110       -1.48499778965777       -1.03948457234614
H            3.97240438537168        0.15266190711117       -1.52081803967108
C            1.93077204592833        1.15703957648757       -0.34591293181925
C            2.80114127726382        2.09301297566115       -0.93484677972970
N            3.52466091135332        2.85232444486809       -1.40677921392510
C            0.81946435439989        1.71438063746246        0.37240311339183
C           -0.36774578844681        1.13678785097605        0.64198618779034
C           -1.37660671006925        1.86632669146030        1.41593478663861
C           -2.67909355978023        1.98111149085980        1.12028461779317
C           -3.36873112320492        1.37380072067372        0.01751210540318
H           -4.29317953239882        1.84811458281425       -0.28675299034593
H           -3.28906920274903        2.62445337277523        1.74172659025818
H           -0.99579461550524        2.39689517937359        2.28080437210556
H            0.93807750384796        2.75498307843741        0.65012888556635
H           -2.00981942694801       -1.66893974601610       -0.53490925428336
