31
 energy: -53.777678975722 gnorm: 0.000575336659 xtb: 6.6.1 (8d0f1dd)
N           -4.20486071213256       -2.39539192821382       -0.63850486068881
C           -3.28924626375506       -1.75463104481072       -0.36558148396792
C           -2.14485342973737       -0.99707995566190       -0.05305665897838
C           -2.38566033780335        0.25911033871919        0.58294392581370
C           -1.55903685320745        1.33574526631622        0.65316046296411
C           -2.03480929675668        2.48623722767998        1.31233400060312
N           -2.39031124068277        3.43982966460893        1.84748582500669
C           -0.25188513833980        1.46027607497313        0.00707097223504
N            0.08267804868795        2.74148299168725       -0.43858252163313
H            1.07456877577153        2.92404424630854       -0.48769531521055
H           -0.42510614210907        3.48342357050030        0.02275957768873
C            0.56377915225438        0.41148834909470       -0.21935916063922
C            1.82684617064928        0.56463987672707       -0.99494702517619
N            3.00663187577486        0.34300172677876       -0.54735156589698
C            3.30574426240244       -0.29375900378094        0.61619238030994
N            4.49985114222696        0.10742323592830        1.16906814232874
H            4.96127682105894       -0.54308064339857        1.78276235617003
H            5.10210480589383        0.63527900776460        0.55892939426294
C            2.59703520996762       -1.34383425327742        1.14311505454885
C            1.30444691915693       -1.75151584396814        0.74309679102151
C            0.35072309083249       -0.98822037304315        0.13593414680506
C           -0.91209322905845       -1.58751503746889       -0.28456811655302
N           -0.83974876223561       -2.79666758526421       -0.87950584089286
H            0.04514398648505       -3.26844514120822       -0.94079660524246
H           -1.68104219821524       -3.28948993869293       -1.13266293918464
H            1.02096408285860       -2.75617857456730        1.03745328329986
H            3.08464637922006       -1.94139776706157        1.90137931899352
N            1.66874621291002        0.91808044477330       -2.29061679814125
H            2.48895515160613        1.03737339628397       -2.86037420255901
H            0.80801044013431        1.34777245288635       -2.58011260482957
H           -3.37662894155777        0.37033580538461        1.00963519154514
