28
 energy: -50.633981747553 gnorm: 0.000581227126 xtb: 6.6.1 (8d0f1dd)
N            4.95866834564124        1.25998008751882       -0.71200431889480
C            3.83417359360729        1.04841631802552       -0.59070169228580
C            2.46545773097955        0.77506731615075       -0.43014035483628
C            1.56548975693336        1.58368472772642       -1.11949682449060
N            0.29280741720553        1.73791970236959       -0.88740236811180
C           -0.55914539461450        1.00083017876638       -0.21735144264435
N           -1.56718664632120        1.60954623740581        0.36276389156936
C           -2.80675832618779        1.21618622206486        0.54100190517996
C           -3.44627581759972        0.16345678871779       -0.14961274824903
C           -2.81287388730789       -0.96305803291815       -0.64540970979914
N           -3.56693565708529       -1.90416572688562       -1.27631696193549
H           -3.17523745744491       -2.81257371993043       -1.45103394542575
H           -4.56817492684607       -1.82278197290140       -1.26921572453371
C           -1.44206242364448       -1.29446899831451       -0.44939405801702
C           -0.40184122189425       -0.46151045395440       -0.13168122132320
C            0.84640439643354       -0.97723796844056        0.34906149852189
C            0.76412239843088       -2.24686172966685        0.94722052933382
N            0.71251174419781       -3.29471028473397        1.42227666321809
C            2.11238449340896       -0.37248228185863        0.34844633506173
N            3.11353000211430       -0.97491932201844        1.03608019563899
H            4.05955418623994       -0.65572487690824        0.90997951232885
H            2.95806663999907       -1.87761608804372        1.45308411746014
H           -1.20625138627041       -2.34644896145215       -0.56377944611841
H           -4.52688223045362        0.19142572585682       -0.20037057366187
N           -3.53796731724561        1.96713024468491        1.40085917622848
H           -4.53817764016055        1.88454584263977        1.41624823051008
H           -3.11665898332736        2.80655500832535        1.75951338289555
H            1.96716635755984        2.25599313178714       -1.87136000160696
