23
 energy: -44.014229585282 gnorm: 0.000862393146 xtb: 6.6.1 (8d0f1dd)
N           -1.60405757704811       -2.76412442109537       -1.49907840040420
C           -0.81243290282319       -2.08430952655349       -1.02176231167191
C            0.20250144308461       -1.24421134038559       -0.51047538538911
C            1.50614770733711       -1.70878663918885       -0.65382099924539
N            2.62081211509910       -1.23646165676533       -0.13022534812877
C            2.69387846344652       -0.03251286582545        0.42159071450215
N            1.98537537966245        1.03920493384587        0.05099362170956
C            0.73349476014959        1.13414141323779       -0.25518792760823
C            0.28206266609270        2.30625782096393       -0.94819629933346
C           -0.96812582527993        2.83632712068459       -0.86771729123776
N           -1.90649498029456        2.59539190767145        0.05738177206119
C           -2.09050870715656        1.51292189505245        0.72900055994965
C           -1.48499930534173        0.24045474302222        0.50940669807741
C           -2.18566016873672       -0.87275603067756        1.02659686587113
N           -2.75733949854597       -1.73284705296886        1.52614737131392
C           -0.22228059524561        0.04388917252222       -0.03769078692335
H           -2.87398316216543        1.56313454366319        1.47934167430016
H           -1.22475455242480        3.66885707188841       -1.51428955318709
H            1.02424653594815        2.78680963438346       -1.57072227597477
N            3.68799321405494        0.17877337845933        1.29488603502723
H            3.87519870785697        1.10756466012122        1.62949395190587
H            4.33225850412373       -0.56975788159690        1.48024961348750
H            1.63410183120696       -2.65772925275816       -1.16413232490151
