22
 energy: -34.668933751130 gnorm: 0.000427092831 xtb: 6.6.1 (8d0f1dd)
N            1.16601178525329        2.31664292371556       -0.97542829001110
C            1.25305745247951        1.12849417623241       -0.30741453776648
C           -0.03643549045411        0.52537758718647        0.08454432184986
C           -1.01997765667795        1.30627350999848        0.58620664304418
N           -2.24054283408366        0.93290579684826        1.06879077660843
C           -2.93006489494889       -0.04260585292081        0.62831163129108
C           -2.63812012820235       -0.91413104456569       -0.49663757001427
C           -1.41102546766140       -1.28925438556956       -0.87328299301751
C           -0.16407770898979       -0.90239505149222       -0.20005962132107
C            0.79534689483832       -1.82566530129207        0.03650068940541
N            1.96671237050231       -1.69236585396688        0.70998189006230
C            2.66915841674593       -0.61987714220295        0.74208869664483
C            2.45831514725467        0.61513277943532        0.05508707456527
H            3.34114300672162        1.20806779282404       -0.15225010046066
H            3.59763009815837       -0.70555441215569        1.30037350442663
H            0.58831784009293       -2.85729336247062       -0.23091971287930
H           -1.29896715188999       -1.95943129408148       -1.71953375096513
H           -3.49938758097949       -1.30075710878366       -1.02778616106944
H           -3.88723318836819       -0.19442043485498        1.11942476614661
H           -0.81291576480662        2.35474230002054        0.77135700902560
H            0.27131966890988        2.60901728838872       -1.32693516712087
H            1.98514837390567        2.67488992300682       -1.43616575334440
