27
 energy: -46.880279775953 gnorm: 0.000911751156 xtb: 6.6.1 (8d0f1dd)
N           -3.27446685325044       -3.19006088291652        1.14450030444417
C           -2.59854100105282       -2.34510097294104        0.76217477739888
C           -1.75322304650209       -1.31559062392905        0.29116420307416
C           -2.18171459686098       -0.03202101744118        0.42695414278742
C           -1.53613058162220        1.13724577936593       -0.08859784101072
C           -2.36454489171771        2.25862141510080       -0.29667758896966
N           -3.01137531710184        3.19412458604596       -0.46264470479557
C           -0.19398050748344        1.28664013224216       -0.37007875586367
N            0.26679417618088        2.38200614119039       -1.01608076683374
H            1.25406668245154        2.57002713386338       -1.02672767804134
H           -0.37347964760701        3.11125484757932       -1.28570205302166
C            0.82346899589381        0.28796987501034       -0.00104508802261
C            1.93199277552137        0.65317438947174        0.70431409916940
N            2.94133715133425       -0.17396438469965        1.12668546499253
C            3.38105167428712       -1.19225889536115        0.49706090045368
C            2.97132581458504       -1.68936197307183       -0.79744681798715
C            1.72268376340166       -1.61130012268616       -1.27128481773632
C            0.59103940578478       -1.06399007478537       -0.51062327778415
C           -0.55327848351258       -1.75607423208994       -0.38222138959639
H           -0.58832300556506       -2.76257798990644       -0.78070654182181
H            1.49451476803373       -2.00616175805280       -2.25447029750723
H            3.74033959289733       -2.17416687413953       -1.38449339530632
H            4.21534062580943       -1.69859971906580        0.97352364509604
N            2.11781364111407        1.96174628114982        1.14704096700779
H            1.28091574618510        2.44952022066138        1.43363171104946
H            2.85226839001450        2.01397116125975        1.83900078330387
H           -3.15533551122128        0.13210801314306        0.87325954142001
