25
 energy: -46.698579208322 gnorm: 0.000536269509 xtb: 6.6.1 (8d0f1dd)
N           -0.29025589412178       -3.54060190684616       -1.62300490376953
C           -0.61374325118052       -2.52371992730188       -1.19699219056177
C           -1.01830111244117       -1.27391708113981       -0.68887851632751
C           -2.35619155882964       -0.89059053374246       -0.91097537038470
C           -3.05908506029579        0.12720212614748       -0.32746328867607
C           -2.52813501525783        1.09288929836208        0.57589347238400
N           -1.28721473651819        1.51577757205447        0.60952555979682
C           -0.22357073840984        0.95421330762220        0.07786062814170
N            0.74168815402995        1.70311500497292       -0.38966650657243
C            2.01477985353665        1.37841825980950       -0.58936672726093
N            2.75658164847917        0.52750245533403        0.11148366600985
C            2.18653096010796       -0.47457078480364        0.78006888264281
N            1.02712642303267       -1.05527173276993        0.51327225864130
C           -0.04889554319629       -0.51662631462575       -0.01095552658421
N            2.94245790011870       -1.06432006211196        1.73206131205736
H            2.65674385204914       -1.97076871642023        2.05988688322347
H            3.91545542778904       -0.81572465002199        1.76767848044106
N            2.66673914556698        2.11015674395793       -1.51612143505116
H            2.20016499221735        2.90383748955407       -1.91670759135973
H            3.66808970086276        2.04440486260165       -1.55019738490334
N           -3.38339692631438        1.71681293529523        1.41800613430223
H           -3.03272031088216        2.47799636624792        1.97229376636314
H           -4.37417142486802        1.58482136899467        1.33142234646777
H           -4.12425991600261        0.17505630321179       -0.50919777212628
H           -2.91879565477863       -1.56489355577988       -1.54680401409432
