24
 energy: -43.740213822300 gnorm: 0.000806061214 xtb: 6.6.1 (8d0f1dd)
N           -2.54575486273267       -1.51058349042894       -2.03066245871814
C           -2.10179128536588       -0.71298684851985       -1.33483374760132
C           -1.53618553220262        0.30475100264935       -0.53292716566459
C           -2.21457441396745        1.51379179196464       -0.48712398073241
C           -1.92296530414795        2.62587074884597        0.30439807735463
C           -0.75531200161318        2.78455013676580        1.02764718571609
N            0.38984509894694        2.18759567840225        0.78358961655204
C            0.68531128421671        1.09798758891218        0.15392688905810
N            1.85937233038073        0.98366815131157       -0.45699584428731
C            2.67853515930657       -0.02214077868629       -0.45959981687337
C            2.57903717724960       -1.17936451128636        0.40305270371935
C            1.40928881021086       -1.71278035805416        0.82629826745780
C            0.08364765172864       -1.27424726934840        0.51085188620747
C           -0.93843365193308       -2.21726980734635        0.76511479503076
N           -1.74606022256504       -2.98806174142617        1.02992493493144
C           -0.27825271803901       -0.01608221349350        0.06930138699937
H            1.45547999117487       -2.64169760379283        1.38232004005825
H            3.49969762120160       -1.70214417894223        0.62051365562336
N            3.73879219981410        0.04798321195897       -1.28406828859777
H            4.43045764236426       -0.67821021431161       -1.30573467529105
H            3.82191484257925        0.83719882540310       -1.90081233182537
H           -0.70071443472072        3.54520337148671        1.79795260410134
H           -2.68662242985671        3.38424028735655        0.39733520445228
H           -3.14604272842967        1.54140188247980       -1.04049076417089
