27
 energy: -50.923141946351 gnorm: 0.000975219889 xtb: 6.6.1 (8d0f1dd)
N           -1.10122571775417       -3.44069694809746       -1.80440381289933
C           -1.33374191996973       -2.41803269787552       -1.33640863315252
C           -1.62361107999123       -1.15426949629263       -0.78655051387667
C           -2.93939344373674       -0.69643804519150       -0.85580238621217
N           -3.53055727932736        0.26414147779362       -0.19560740089409
C           -2.96639593722279        1.25213607876490        0.50077967807334
C           -1.64858314804990        1.72622699601175        0.40100614137570
C           -0.56039886878324        1.01148184269536       -0.07317133853753
N            0.51786536579228        1.65549863560218       -0.48188658623371
C            1.76917088032153        1.28860086615200       -0.62743408397822
N            2.51560498464816        2.05244451606499       -1.45594483321294
H            2.09543693005988        2.86770613242795       -1.86564785773251
H            3.51502119175559        1.94573961165927       -1.47270578514587
C            2.41641749505168        0.24852029433375        0.10450455330687
C            3.80856339931022        0.25683782889688        0.21912569868031
N            4.95682732157401        0.27103413661627        0.31477856447511
C            1.67059443326242       -0.79281267005974        0.69580482588672
N            0.44729203918884       -1.13909935318053        0.32372803715263
C           -0.55399672711504       -0.46348075251526       -0.15623412377695
N            2.24740597242366       -1.59674000260756        1.61823189083256
H            3.24174898907692       -1.54256265210784        1.76204942400063
H            1.76891883888304       -2.44609461810862        1.86377805442955
H           -1.46082194110064        2.75189696807099        0.69012278569060
N           -3.84498018479086        1.93835807454454        1.26769866057493
H           -3.57886855546187        2.79754678890739        1.71320395931725
H           -4.81652727650174        1.68776436371435        1.21106312304028
H           -3.62667473833177       -1.28940167802291       -1.45321160478360
