30
 energy: -59.685073056977 gnorm: 0.000560119778 xtb: 6.6.1 (8d0f1dd)
N           -5.56002698453076        0.52925867750420       -0.90645974006235
C           -4.46081919478364        0.30767428011758       -0.65416211047013
C           -3.11724964093872        0.07792111175201       -0.31008901743246
C           -2.47800715351668       -1.04127859187476       -0.79887129641875
C           -1.19802910504441       -1.52050216705500       -0.48431492767841
C           -0.90583259863977       -2.83963208139427       -0.90211588258714
N           -0.67801686227918       -3.91076937850584       -1.24398570061730
C           -0.12823893952968       -0.83654841637338        0.13106035275518
N            0.89391581968554       -1.53812171050052        0.56432611497151
C            2.16291600352632       -1.24661689855986        0.69096507582705
N            2.88772639945416       -2.06899692396222        1.47147532867638
H            2.43524095296235       -2.88629739654690        1.84486374800808
H            3.89300500390079       -2.03085805139769        1.45034755299186
C            2.84071537820008       -0.20891581318407       -0.02674635029436
C            4.21980016243156       -0.37559249374914       -0.22374302597360
N            5.35206958661798       -0.52036970881734       -0.37202095403561
C            2.24877004617206        0.98793113232880       -0.46168671533592
N            3.01853530419698        1.87090581301906       -1.12919972521171
H            2.66255481570976        2.78646072694368       -1.34855734158421
H            3.99588972788177        1.67770546101739       -1.27283245043860
C            0.91603170178835        1.40163156482405       -0.15058913110359
C            0.64242341659262        2.77717171542424       -0.30679735750085
N            0.44740985408681        3.90105754282725       -0.44352958114518
C           -0.18121967348179        0.62462047853368        0.23880491842975
N           -1.24696508693079        1.25197231961900        0.70709965478244
C           -2.51867833107223        0.99545305571842        0.63774341219897
N           -3.33208948866621        1.68506157640132        1.45537740845522
H           -2.93181416860145        2.40128450066587        2.03729849929582
H           -4.32835681383416        1.66025398159224        1.31666180882528
H           -3.07038907203353       -1.68970771917672       -1.43544265841927
