34
 energy: -61.741884197235 gnorm: 0.000702667996 xtb: 6.6.1 (8d0f1dd)
N           -4.45870310823357       -0.73168168951822        2.54157075045130
C           -3.73849749419858       -0.34351909266372        1.73376192049881
C           -2.83143369840592        0.10550837932924        0.75561517044285
C           -1.79008737130163       -0.82589168321509        0.35705510187981
N           -2.08449787942429       -2.17822383807660        0.52609350846479
H           -2.86921180695594       -2.35234887127078        1.13874803129875
H           -1.29544612762491       -2.77455846405789        0.72912648756041
C           -0.58876102511982       -0.42468363592410       -0.15180681585911
C            0.39194378132045       -1.38917175082664       -0.65927192392675
N           -0.06292664163573       -2.31868938751929       -1.52728906217588
H            0.56051044163990       -3.01471666661968       -1.90221664321652
H           -1.05191491674321       -2.40818433114865       -1.67971082570832
C            1.72098600246290       -1.35074983159206       -0.29505613191334
C            2.55288669950288       -2.37901183093534       -0.76975074119939
N            3.22032792675759       -3.23090961002182       -1.16237942169472
C            2.34115674389179       -0.40270314770162        0.61347518685623
N            3.38119237241047       -0.88742953719689        1.34640230250459
H            3.77510756717807       -1.78201953960775        1.10923295845683
H            3.95764991215834       -0.23898192025420        1.85686579268683
C            1.97188560363166        0.91945578977407        0.73459564578628
C            2.74274907254089        1.74185202765870        1.56970927358351
N            3.37717603562958        2.42851560655309        2.24271040802403
C            0.91788853285441        1.58424209182492       -0.02011582477174
N            1.16998822341157        2.90766189385305       -0.37733402617843
H            0.34746823220266        3.48041938045754       -0.50231338139388
H            1.87768290414550        3.36024021997712        0.18419776145324
C           -0.22816108726056        0.97356643033430       -0.38577977479285
C           -1.24910230946635        1.62627304742803       -1.24613845839654
N           -2.45356017180777        1.86647339243709       -0.86270413054316
C           -3.03865782785666        1.35193435786966        0.22333162767261
H           -3.85106960917866        1.95473238895758        0.61162918207153
N           -0.86901402860688        1.94660255638086       -2.49719854044052
H           -1.53877087172922        2.36615848469170       -3.11977622158380
H            0.10899181097207        1.99163200410440       -2.72207523558637
