27
 energy: -41.287556659240 gnorm: 0.000740501917 xtb: 6.6.1 (8d0f1dd)
N            3.80689676721988        0.27758386109744        1.03866263115601
C            2.54650521276575        0.40345471786091        0.47842216662382
N            2.24805381085751       -0.59788894471057       -0.39559072300432
C            1.07711295618267       -1.03597555048613       -0.66779443905324
N            0.91546059320725       -1.81962886246167       -1.76873320697516
H            0.10308155176271       -2.40928888169885       -1.82115877306015
H            1.74566079585774       -2.11323192970448       -2.25571906586165
C           -0.17775010444684       -0.71819857554924        0.06356669013305
C           -0.92673429101325       -1.68819568065346        0.61869658683104
C           -2.20090132522715       -1.51947481842860        1.25334492016180
C           -3.09666274921008       -0.55144084224280        0.96562768774509
C           -2.96602672780748        0.49070482343489       -0.00342922162360
C           -1.82226566976894        1.04182171191566       -0.47696836936503
N           -1.86430516248258        2.05251426455693       -1.41245127695469
H           -0.99800081551250        2.28220652800447       -1.87026049035364
H           -2.69544534391525        2.13233517368282       -1.97562544807603
C           -0.47513805369612        0.70376475942531        0.01468818659503
C            0.42777812197996        1.67861420420706        0.29257446579374
C            1.77644363695948        1.50937764052145        0.70276404762476
H            2.24148413786933        2.34770785961448        1.20476988166518
H            0.06506127494568        2.69976567351176        0.27863124184309
H           -3.89787222786678        0.90937844472986       -0.36711607590547
H           -4.06542684872342       -0.60566151174787        1.44818700670634
H           -2.48782401332475       -2.29559142990023        1.95106366653102
H           -0.53020178220094       -2.69820975504971        0.61749293008883
H            4.41402521188634       -0.36084163622228        0.54918819298947
H            4.24696048040155        1.13487003329286        1.33275004734470
