22
 energy: -43.530894709423 gnorm: 0.000330634705 xtb: 6.6.1 (8d0f1dd)
N           -4.75914094625564        0.04165626678594       -0.95151011100424
C           -3.63459792910871       -0.04658001045218       -0.72972297993824
C           -2.26380934853754       -0.11504022845043       -0.43006066965105
C           -1.73054287576081        0.85866708940544        0.48586780202612
N           -0.47534623637302        1.25548934811212        0.49336364053672
C            0.58173647455381        0.60601368827912        0.08109995609931
N            1.66302352305819        1.17990515962801       -0.37516176080922
C            2.87811288634675        0.63788005364810       -0.34803777431162
N            3.36671804098698       -0.18839516944556        0.58744299226883
C            2.59728513994471       -0.99949198776880        1.27321799227829
N            1.41022326235156       -1.46562281406337        0.96611656663444
C            0.55469915017445       -0.89270709317987        0.15058056140689
N           -0.30753462089205       -1.52514844078371       -0.59294024760480
C           -1.47854195571399       -1.10441632751409       -1.01407673093182
H           -1.90362564228768       -1.69548474343391       -1.81772629251611
H            3.06172556692791       -1.45898944545315        2.13941542660663
N            3.76418130889302        1.10743316970612       -1.24057145706925
H            3.49787354412286        1.86771543300804       -1.84088303626766
H            4.73211646792640        0.86375283343333       -1.12656038424785
N           -2.57526187936527        1.51666265056337        1.30056575339422
H           -3.56862762463576        1.38802169047181        1.20846893007391
H           -2.22042533645623        2.28897149890061        1.83791128292992
