27
 energy: -46.088718853595 gnorm: 0.000657971524 xtb: 6.6.1 (8d0f1dd)
N           -4.80926783469265       -0.58788500323442       -0.41240790749260
C           -3.73141712751788       -0.30203860231369       -0.12700751489068
C           -2.40900948504268        0.03635404526038        0.20312137355062
C           -1.38482418597364       -0.69424185662784       -0.36190569049185
N           -1.64270311232795       -1.62719075867196       -1.30575008075775
H           -0.91691522247240       -2.26346999929523       -1.58607232100477
H           -2.59631447949317       -1.82990925944655       -1.55959147179399
C            0.02405339367895       -0.53225933076630        0.02091744448396
C            0.79039767860693       -1.62377151488850        0.25910968273339
N            2.07824161135734       -1.69565363031389        0.66284307804865
C            2.99548964638032       -0.82923707415450        0.36861128418025
N            4.25104702860706       -1.11996162296123        0.81854389298152
H            4.94630458139451       -0.39537043170501        0.83699276719922
H            4.31526449681960       -1.84934592494357        1.50830383325586
C            2.89218160643906        0.30999902727171       -0.51264582221125
C            1.78401051703775        1.06604689001054       -0.69748725340348
N            1.80333536638957        2.15265650685735       -1.52472404743155
H            2.56005446411770        2.25219371863494       -2.17955273910739
H            0.93286320104440        2.60026893449546       -1.75134429064442
C            0.51823970710802        0.84760772948274        0.02887871402901
C           -0.12862760654281        1.89295432304385        0.58531291949841
N           -1.26316239753937        1.88879820251449        1.34277611526487
C           -2.23514258683578        1.07699264253280        1.19481526384211
H           -3.07956350742249        1.23769011697492        1.85948866591420
H            0.33123447602999        2.87470492729492        0.54970469286142
H            3.80436412319025        0.60415284079992       -1.01736234773480
H            0.31403109605790       -2.60081391035009        0.25905006892032
