27
 energy: -51.708209569607 gnorm: 0.000534992807 xtb: 6.6.1 (8d0f1dd)
N           -0.54477527879086       -4.08822187147449       -0.14533773557792
C           -0.28730808444251       -2.96909548987469       -0.10055598301860
C            0.04512537117421       -1.60060483562547       -0.08064727470438
C            1.39971266944517       -1.25142959006779       -0.30526361507431
C            1.99321914475884        0.00001732846778       -0.00109115630703
C            3.40210941185931       -0.00033331136021       -0.00269898432779
N            4.55324642015184        0.00064125297888       -0.00303565979659
C            1.40030007201699        1.25150931421539        0.30423044072532
C            0.04528076142775        1.60067643030759        0.08212151288242
C           -0.28751315607168        2.96909197509185        0.10360154349183
N           -0.54359932283983        4.08843019633712        0.14696668323372
C           -0.98509013612957        0.70898397977116       -0.23357794884409
N           -2.01040437077443        1.02977975965516       -0.95936816754768
C           -3.25052453229573        0.62245194273484       -1.03084731808535
C           -3.94148264337593        0.00005174638948        0.00403622892193
C           -3.24880500036297       -0.62231647873976        1.03779583330347
N           -2.00880298500059       -1.02962781522305        0.96426563352134
C           -0.98472361100012       -0.70889689412049        0.23669738390782
H           -3.76436030078504       -0.93248041119123        1.93890068399486
H           -5.01958507259169        0.00002367473852        0.00490946523204
H           -3.76756517638750        0.93261897745471       -1.93110309137482
N            2.21789616545743        2.23705147478704        0.73002429143498
H            3.21378725656771        2.09414109060530        0.76282265003469
H            1.85685778032218        3.17142624402074        0.83200001450827
N            2.21659185649409       -2.23696482178253       -0.73240639843414
H            3.21241878068429       -2.09398032515540       -0.76697910419935
H            1.85542173238909       -3.17136628534111       -0.83363953810044
