24
 energy: -42.942494162044 gnorm: 0.000344887777 xtb: 6.6.1 (8d0f1dd)
N           -1.99306526308467       -2.75952718626804        1.50270589425320
C           -1.82913363894149       -1.73361909725927        1.01253746925340
C           -1.65044001862966       -0.46771428597729        0.41890709766702
C           -0.38840205495041       -0.24785063621351       -0.19793607472202
N            0.36041510521120       -1.28272392277736       -0.47537953668170
C            1.67674079224172       -1.39000907448029       -0.52919334247723
C            2.60006705009675       -0.53455023933397        0.09576372116294
C            2.39130400290934        0.80864048458822        0.38875242298700
N            3.39898976767164        1.48832568070431        0.99224036307323
H            3.33852136897605        2.48362543494675        1.10583214267761
H            4.27586032890422        1.03694789236407        1.17911999252707
C            1.26838677574991        1.58005389819952       -0.00297514198203
C            0.03061736979174        1.14268489888771       -0.40814774657868
N           -0.80408235029238        1.98041074466147       -1.04530968838041
C           -2.08440392821657        2.06854647862737       -0.95648659564425
N           -2.90453729463247        1.59443320228571       -0.01645900333275
C           -2.66422367082364        0.48249988740172        0.62802013362648
H           -3.42955689312856        0.21812791223397        1.35314830479938
H           -2.56327994561107        2.71241040675561       -1.68928349775033
H            1.39576511485298        2.65507553190750        0.02315607521680
H            3.58411359312580       -0.93774545277936        0.29586783054324
N            2.12610363778447       -2.50673627252828       -1.14814503872421
H            1.44103380258122       -3.18928073593843       -1.42450212854304
H            3.07989557491458       -2.79929957600721       -1.03511066287233
