23
 energy: -44.029785452600 gnorm: 0.000951099141 xtb: 6.6.1 (8d0f1dd)
N           -4.96408252602622       -1.18543593508315       -0.23180281159306
C           -3.84107413853433       -0.97889954788753       -0.12394874134375
C           -2.45335499862158       -0.73275033597346        0.01181444177227
C           -1.99947040187387        0.47267977861887       -0.51810026877877
C           -0.74679685361570        1.06003684272312       -0.37632076330238
C           -0.58549116804738        2.38285981830985       -0.84832076283871
N           -0.44584612974718        3.44472050986218       -1.25915727820215
C            0.36978444058521        0.48264160423707        0.26918240507361
N            1.25943218143883        1.21861049931946        0.88456247381098
C            2.51716646591504        1.02936632771230        1.17737044645606
N            3.38506339303315        0.27868610882474        0.53800512595426
C            2.92585660769964       -0.71407293357696       -0.24158677504467
N            1.78651912000626       -1.37184419693950       -0.07763571599625
C            0.60586451890632       -0.97142900953220        0.31581812971228
C           -0.36135139131042       -1.90153116512747        0.74239203368588
C           -1.71965341118713       -1.75576343247258        0.64801744348103
H           -2.31936480345659       -2.58017070201602        1.01603474020168
H            0.02553298888381       -2.84531168495138        1.10164276701663
N            3.78135829434595       -1.20204574958240       -1.15077259273664
H            4.70888004544544       -0.81778966549425       -1.18922554100461
H            3.55105336454953       -2.03698989389519       -1.65967684350548
H            2.91533108332500        1.67110572748713        1.95483574646962
H           -2.74462050371602        1.07796176813407       -1.02322222488619
