27
 energy: -46.104840507958 gnorm: 0.000648428996 xtb: 6.6.1 (8d0f1dd)
N           -3.62937936577534       -1.95881127023501        1.73633048168686
C           -2.93072598815712       -1.26646391443373        1.13726752744740
C           -2.08823837929067       -0.41293057399500        0.40757600579383
C           -2.56969482202536        0.82304467723939        0.04497900064435
C           -1.85590339975181        1.79604131730740       -0.75892933417144
C           -0.53198201886693        1.93824495149307       -0.92244611885434
C            0.53127187701697        1.11719357633872       -0.37632271051546
C            1.71674648560217        1.70454045044092       -0.04849227849320
N            2.78177105284347        1.17997442053534        0.59529159254456
C            3.08373935620817       -0.08089507653138        0.59164012786845
N            2.67713850980624       -1.02412034062501       -0.30423410505276
C            1.49398648512179       -1.08381030070043       -0.79986396185267
N            1.27812633380352       -1.88169298372151       -1.86439034113010
H            2.04607067729392       -2.40946957697488       -2.24150428900380
H            0.34307458565873       -2.06686451633978       -2.17879879243698
C            0.31086755402221       -0.32843097535046       -0.30616411042767
C           -0.81641981113489       -0.98277268795159        0.00604706846296
H           -0.79341744345514       -2.06743221079377        0.01214989282494
N            4.02620104990817       -0.51377378658415        1.47387986019844
H            4.54980115315268        0.20041457210902        1.95035574993378
H            4.49373398532319       -1.37716994475973        1.25827442196823
H            1.80366840995918        2.77894613082559       -0.17867899200467
H           -0.19586382384734        2.79341524066608       -1.49926752442094
H           -2.50149177804396        2.53698519759723       -1.21620126130366
N           -3.85057337884695        1.17211053347984        0.35885681232944
H           -4.13723307702959        2.12966869172753        0.25954039643919
H           -4.36236121319027        0.59532908063966        1.00577937012905
