27
 energy: -46.112076278658 gnorm: 0.000558915136 xtb: 6.6.1 (8d0f1dd)
N           -1.76799848365644       -3.32455150641605        0.80934890993423
C           -1.49226705805601       -2.23387167934142        0.55552297262916
C           -1.20387463662461       -0.89407346260177        0.26416977616523
C            0.13767081780960       -0.59668907975865       -0.13326147301665
C            0.69128248878495        0.74309592453435        0.07616403658548
N            1.92013187054640        0.87995061601305        0.58668087476808
C            3.02328810526381        0.22878187095478        0.39374779004251
C            3.25345771807907       -0.76765733210751       -0.60595515925545
C            2.26326028311960       -1.58089345281507       -1.07230894054697
C            0.90097238234787       -1.58702365440279       -0.72110359326917
H            0.36069791163570       -2.48249737145042       -1.00405773526065
H            2.56683243418157       -2.38271082969919       -1.73527572313110
H            4.27828758126057       -0.95652807176252       -0.89195629722693
N            4.08464661311167        0.61704962445250        1.15618902471733
H            3.88470048161994        1.20950046732063        1.94408538474330
H            4.89388091060449        0.02433049312105        1.20734353554874
C           -0.00824111215624        1.90365865207789       -0.17210686341301
C           -1.38551815140873        2.04553095307606       -0.45001100437786
N           -2.37777849990489        1.24256668395349       -0.12104190948657
C           -2.28170392861334        0.00730657604939        0.36731057376512
N           -3.43156351837912       -0.42735652547313        0.94352478671910
H           -4.24689385286075        0.15034767969717        0.83646861683379
H           -3.54329103032914       -1.40357941066878        1.15902280279871
N           -1.78535879651958        3.20086873530183       -1.03642335850967
H           -2.77100138043028        3.37937716353381       -1.10906335981722
H           -1.13378880102608        3.94857831340359       -1.18682174943680
H            0.57893169907939        2.81281391613071       -0.16210138190365
