28
 energy: -51.420486166155 gnorm: 0.000342620365 xtb: 6.6.1 (8d0f1dd)
N           -4.57500880765022       -1.76672252931186        0.70126671668659
C           -3.53320550040136       -1.35964362647879        0.43549504102384
C           -2.26315036968756       -0.83551103215021        0.12429848840674
C           -1.34874916484294       -1.73787733785337       -0.46017063001676
C            0.00088881233632       -1.61078667046578       -0.61023946308385
C            0.67159041093292       -2.70285865941663       -1.20170587085292
N            1.21739340371482       -3.59278574527910       -1.68092554253830
C            0.87403789271653       -0.51060930171960       -0.20300093636584
C            2.12675697182515       -0.84556709674555        0.21461522181345
C            3.21106670863409        0.03521453241763        0.55692903562362
N            3.47697502659903        1.19056996822504        0.00531431456232
C            2.65468052706543        1.86691342908346       -0.79630052717494
C            1.29424090859956        1.81714840624388       -0.90083268272000
C            0.39222946387516        0.85234691032390       -0.34806149679848
C           -0.90637754583367        1.27132032689723       -0.07740977617354
C           -1.12743210942870        2.66582320799768       -0.14383749950111
N           -1.35987246262299        3.79142570131812       -0.17568646356307
C           -2.06429558899925        0.53085214554169        0.34939887989107
N           -3.05866812409763        1.23579673955245        0.92912530940560
H           -3.00456153871858        2.23887616145614        0.99182401196660
H           -3.93170555707496        0.78034729382193        1.14037689249805
H            0.82762561804710        2.62194233560625       -1.45505141535598
H            3.16703389224812        2.65279209553350       -1.34136981690715
N            4.11237189490004       -0.41851834581875        1.44828502177135
H            4.06317917252047       -1.35378483720068        1.81001176418552
H            4.92797834679528        0.14163535141677        1.62702361914144
H            2.33520848582958       -1.90123561556336        0.34292281002778
H           -1.77719351087793       -2.68396781912749       -0.77336001784984
