26
 energy: -45.593107438998 gnorm: 0.000405255266 xtb: 6.6.1 (8d0f1dd)
N            3.75287465289563        0.21490575352812        1.15664354995803
C            2.58230696642393        0.44456591514428        0.49079670839391
N            2.28271287554955       -0.51116665844902       -0.43724292681549
C            1.09140289184981       -0.88225624913449       -0.74565689222715
N            0.89945170407428       -1.62707598491887       -1.85548976026254
H            0.03210710762521       -2.12518025970222       -1.95805033456289
H            1.70267121310055       -1.92036141594949       -2.38558172126972
C           -0.12739238500890       -0.49910436577623        0.00644912894774
C           -1.03801622734246       -1.40418545633942        0.45953941737496
N           -2.15531161112499       -1.12620557169346        1.19946629902378
C           -2.78901488838717       -0.00942914751413        1.14297209752983
N           -2.70684648261673        0.97641365119261        0.23578956149883
C           -1.63774004875267        1.34100565333318       -0.38061850392206
N           -1.73487002478997        2.09007089106116       -1.49619188185870
H           -2.64637938294552        2.36803291762624       -1.81873830938626
H           -0.92097953191926        2.55824809767321       -1.85297481424636
C           -0.27252368729174        0.95108224720273        0.04700248620366
C            0.72116074908730        1.83598975411218        0.27790871643192
N            1.98351109510814        1.57223395146202        0.70677364582884
H            0.50243261475694        2.89863195129319        0.23863990099603
H           -3.61807893585196        0.09858185438054        1.83546858795264
N           -0.84654060955333       -2.77853081018183        0.25930749708062
H           -1.47181004395464       -3.30925850229326        0.85111695218103
H            0.11236219052509       -3.08541706543396        0.35333584134810
H            4.38486953710017       -0.44923294632857        0.74327863675698
H            4.15432828834271        1.01254701540530        1.62001202194471
