31
 energy: -59.389503004509 gnorm: 0.000951354603 xtb: 6.6.1 (8d0f1dd)
N           -0.70590704369945       -4.14315800426311       -1.77688914886438
C           -1.03707996152769       -3.17263735889088       -1.25868253818701
C           -1.43979928899678       -1.98418680069298       -0.61689375203336
C           -2.79221761563744       -1.73727322108819       -0.57001232675927
N           -3.45569969050099       -0.83411898239846        0.13545935420688
C           -2.97682930205400        0.27799281440619        0.63123616805281
N           -3.78050138532081        0.93169450773305        1.48966297273591
H           -4.69943274112172        0.55441954201248        1.64923484142140
H           -3.57245670361660        1.87315993390575        1.77792580923367
C           -1.72664072201900        0.91248485470907        0.26525115091634
C           -1.69399250582450        2.30361128936047        0.49470000348026
N           -1.72791066798502        3.41318120531984        0.79472117661374
C           -0.55266656477431        0.28796366173254       -0.13298948136478
C           -0.36252230091441       -1.15345611613439       -0.10348038780243
C            0.79208041081654       -1.77492614403845        0.27418740621833
C            2.04190200349363       -1.23168931301591        0.68148543599255
C            2.53374148554341        0.02641015502672        0.32301632708418
C            3.85748447028283        0.31976352650060        0.69783148176019
N            4.93810926359550        0.55558397735935        1.01529780962611
C            1.87746656491867        1.00816752906658       -0.48624589191912
C            0.49544572849646        1.11751738752281       -0.65861030494455
C            0.05376475036232        2.19828753800372       -1.44977077751038
N           -0.25967698635339        3.03922849461343       -2.16872915958057
N            2.66930450016792        1.93930156421093       -1.06051466650362
H            3.65505757231837        1.95886767933785       -0.86049534430710
H            2.25679030663656        2.71611435040496       -1.55029788359770
N            2.83631587047863       -2.05483527037817        1.39877824236874
H            2.54997431948931       -3.00006221782067        1.58188493794754
H            3.77333112350883       -1.77766193524457        1.63918125967338
H            0.74714815039543       -2.85683385310832        0.32522300915676
H           -3.44368874955926       -2.44100346255286       -1.07888974111358
