29
 energy: -44.708976455094 gnorm: 0.000586049534 xtb: 6.6.1 (8d0f1dd)
N           -4.11292464602756       -0.10402529205878       -0.89350473230487
C           -2.81129534754305       -0.01502821436398       -0.41243091842896
C           -2.35134675605610       -1.18794950592987        0.27893939917203
C           -1.07337008977154       -1.55047409465811        0.51992182124801
C            0.11146585846302       -0.79707554500786        0.07883677520180
C            1.15889957670679       -1.46352082337159       -0.44869940145290
N            2.34805378936665       -0.97034903473924       -0.91967938437609
C            2.96294659968209        0.02964234043466       -0.40520912519716
C            2.57406924767050        0.80312258831588        0.77840521598606
C            1.31027504346090        1.08330235919849        1.11096327933090
C            0.12146097364537        0.63770122694658        0.38266766740396
C           -0.89374780791599        1.50388112183214        0.11595280968131
C           -2.14982771530257        1.16801214466909       -0.49120635128032
H           -2.67010885044921        1.99100023558450       -0.97003350364059
N           -0.73756424424105        2.85721305196476        0.43632059971552
H            0.21361350605373        3.19181381149346        0.43866375764689
H           -1.36948946550598        3.47519928136078       -0.04893385299196
H            1.12638450180053        1.68600498466651        1.99695636823866
H            3.39206360779117        1.17720021108224        1.38215501089325
N            4.19456815757948        0.34507045800032       -0.92666141599444
H            4.54219071500902        1.27826340356791       -0.78420216896693
H            4.40491691461433       -0.08089157421260       -1.81468562710259
H            1.05675842726447       -2.52517709895784       -0.64577393260398
N           -0.80028311614423       -2.74487115072606        1.15704657393329
H            0.12548046412107       -2.84167913186454        1.54065223974263
H           -1.54081432486270       -3.14182843300509        1.71344593873963
H           -3.13408114135559       -1.86754851317598        0.59642144076003
H           -4.41610367150650       -1.02741319293990       -1.15977300608305
H           -4.38454321114826        0.61608875329418       -1.54435382067115
