31
 energy: -53.768696654842 gnorm: 0.000489358362 xtb: 6.6.1 (8d0f1dd)
N           -4.45807471208484       -1.15824322033383        2.02253439427825
C           -3.62218310333354       -0.75505494976355        1.34150154947172
C           -2.62426432538826       -0.25056973739558        0.49374357120554
C           -2.77055233523447        1.03807131944642        0.01293942019805
N           -2.10423821574460        1.51646207450133       -1.07521505569709
C           -0.89032835566541        1.30008232820064       -1.37596191221551
C            0.10399577026125        0.55913763033929       -0.59526515387786
C            1.32636004286702        1.08036460703736       -0.32057615804257
N            1.61386093408708        2.39215999706974       -0.66268748971445
H            0.82785176074103        3.01154652214880       -0.77529801452904
H            2.40206532489699        2.80510387091715       -0.18804441506507
C            2.39687522841144        0.36347665485041        0.35225200275410
C            3.29420942130442        1.14799222601636        1.08950392655622
N            4.02079461451982        1.79247782465070        1.71114047649812
C            2.66439578191462       -0.98901124638999        0.23973373785532
N            3.82498623073762       -1.48074523526600        0.76476343464712
H            3.92691098583832       -2.47378445567671        0.87625249558153
H            4.36504724614790       -0.88817427604828        1.37337973825269
C            1.89096426579502       -1.92566717056723       -0.51500712054655
C            0.56780843714264       -1.87406024770574       -0.80998137859005
N           -0.02139434832248       -2.89525413050317       -1.49945224865941
H           -0.95339817380688       -2.76253726514454       -1.85121884361757
H            0.56280759120358       -3.55660033601168       -1.98235104983834
C           -0.34381004622894       -0.81261644469645       -0.35227246571482
C           -1.56751565804373       -1.15078461572548        0.11318985737102
H           -1.77686479062490       -2.19990852559777        0.28285380771656
H            2.42951072714237       -2.81465792892642       -0.82234648772352
H           -0.57386660483400        1.70069673127768       -2.33838319173715
N           -3.71628873932827        1.88861766532587        0.50640850368108
H           -3.95152338480668        2.68572484697114       -0.05993572599278
H           -4.43688391056237        1.50564360760178        1.09616827799342
