27
 energy: -46.098545058707 gnorm: 0.000656285600 xtb: 6.6.1 (8d0f1dd)
N           -3.70216468314555       -2.17365675266525       -1.25192453923279
C           -2.89558607691787       -1.46607195669932       -0.83284276625873
C           -1.91877742008922       -0.59581901871093       -0.32622464401041
C           -2.26803828253094        0.72714130643139       -0.11161971494990
N           -3.55810360803999        1.11528958797403       -0.34851114620953
H           -3.76972491124998        2.09611323189915       -0.39368833505073
H           -4.15447011978607        0.48908191436160       -0.86370366782140
C           -1.44062516286522        1.71453916648786        0.51081095995670
C           -0.08553407546861        1.77994557097265        0.58223520410141
N            0.51620273904348        2.82752129797500        1.21645195286827
H           -0.03199968508498        3.42798274761329        1.80757517354016
H            1.50816873610356        2.79627325388008        1.37032939589521
C            0.82702337607270        0.82264158810780       -0.05902655341024
C            1.92859562804756        1.26289559342630       -0.72391483432892
N            2.82396368121850        0.53923587285352       -1.44347961079410
C            3.09434427631336       -0.69502547109465       -1.21208909385468
N            2.81336718101645       -1.42263009295227       -0.11310129505148
C            1.75015415274727       -1.30056844947573        0.59484779436292
N            1.71481559131805       -1.79562516824953        1.85083724388972
H            0.82704548933048       -1.95432172535066        2.29457064445760
H            2.52020827014934       -2.29597380659940        2.18821849850983
C            0.52240480785715       -0.58894019754401        0.13743824692121
C           -0.66565492992545       -1.20362953199482        0.03583622411944
H           -0.70086965127636       -2.27762330713416        0.18221991882490
H            3.77335711747137       -1.18171826742587       -1.90371767548347
H            2.07589626455444        2.33212976277953       -0.83566958517703
H           -1.98761733296443        2.54988263333350        0.93457940648873
