26
 energy: -41.573260140111 gnorm: 0.000568496588 xtb: 6.6.1 (8d0f1dd)
N           -1.25790275750805       -2.42135648014680       -0.62861547321436
C           -1.33399168469788       -1.02546224088985       -0.51711811022213
C           -2.54235356045458       -0.42768107848692       -1.05353303082943
C           -3.15249879260658        0.67825835344838       -0.60337089295896
C           -2.73065706410893        1.53223883068694        0.48212956875952
C           -1.47741677610958        1.73114090409271        0.90870889412868
C           -0.28210719192968        1.10771789377407        0.34749698390258
C            0.85982321657623        1.82118346410931        0.18073381597168
N            2.02599447345719        1.43393059126631       -0.39660052691746
C            2.44889216796270        0.21278612758234       -0.41821427388330
N            2.04219940923262       -0.81830878206412        0.37754844935400
C            0.81852681947691       -0.99989797421735        0.72425751154135
N            0.53946578970711       -1.82679361630987        1.75476652110088
H           -0.40705613859326       -2.11495262292441        1.92314111453309
H            1.29399425182705       -2.25599101679578        2.26149697691203
C           -0.35096279117750       -0.33042307949974        0.09375326584752
N            3.52748701685229       -0.08122403595216       -1.21318563684509
H            4.03549343444145        0.72155180820128       -1.54735949563473
H            4.07951309809034       -0.87208917457016       -0.92454503282176
H            0.84556205948859        2.88008532739420        0.41742551914043
H           -1.30759400114986        2.44049430167425        1.71122633391830
H           -3.52816489678882        2.09754486175741        0.94933532404415
H           -4.09521704718183        0.95590942685032       -1.05890165459044
H           -3.02564604035732       -0.99741923252618       -1.83941975175253
H           -1.80987593054852       -2.79829688159388       -1.38558041329285
H           -0.31576136979974       -2.78638870885983       -0.62765918199073
