29
 energy: -51.139792768604 gnorm: 0.000953802597 xtb: 6.6.1 (8d0f1dd)
N           -5.77210077495421       -0.45253555896897        0.14237947684611
C           -4.62442701537316       -0.46679538649569        0.06139868610843
C           -3.22124740337054       -0.46190782114262       -0.02823099728310
C           -2.62335865565281       -1.60098000137432       -0.60240964071629
C           -1.31229570035532       -1.96369447589547       -0.64395850218853
C           -0.12870534154723       -1.29941360425477       -0.19778349196402
C            0.95139713235883       -2.13566686081895        0.06887077914910
C            2.25341693811954       -1.85352920510437        0.46234082458497
C            2.95282410814020       -0.66608880415442        0.38866776965302
C            4.29960916635242       -0.68627132101698        0.79480141266762
N            5.40055801231523       -0.68536421543803        1.12750888329959
C            2.46773006330980        0.56274861144496       -0.17922012592132
N            3.40840824412737        1.47436267666980       -0.51000934998368
H            3.14056877204460        2.37156419771245       -0.87800540675085
H            4.37793080666180        1.29001927120194       -0.31507727019426
C            1.12556035609543        0.87559891942553       -0.37455072630928
C            0.89045216535448        2.15259011028862       -0.92016844822471
N            0.73788838538491        3.19858956880869       -1.37738326651766
C           -0.08827386135273        0.13878193000669       -0.06532525609735
C           -1.16293510629335        0.93476553523993        0.27590612658442
C           -2.54531120901417        0.68581099576976        0.42258027748123
N           -3.27766840885581        1.67724450994356        0.97485127259853
H           -2.85172304076080        2.55777678407413        1.20385850437435
H           -4.28025216105567        1.59872903601867        1.01482067100845
H           -0.90918503229209        1.97073778080080        0.47620899111159
H            2.82607708067454       -2.70165897268450        0.82033434678665
H            0.71550242385826       -3.19267306916196        0.04366864684773
H           -1.12156937328051       -2.94643491526242       -1.05883829423632
H           -3.32964273921906       -2.31920800219356       -1.00283084350672
