29
 energy: -55.155769712533 gnorm: 0.000770175652 xtb: 6.6.1 (8d0f1dd)
N            2.66393625413130        3.12630399234704       -1.74171729143982
C            1.72970781401079        2.66238684837001       -1.25905702142271
C            0.58759885036557        2.09626757653710       -0.65999401129003
C           -0.57916987562079        2.82169954959030       -0.74564000913715
N           -1.72342691320300        2.65167772342958       -0.10443016891420
C           -2.14671678498309        1.55090944114861        0.46822108771366
C           -1.63521487621030        0.21670065540881        0.25847001733860
C           -2.55083957223376       -0.80923833800833        0.56635227914336
N           -3.33621468051551       -1.56973364673435        0.92473343872869
C           -0.33057567317577       -0.14830103308729       -0.06473602258936
C           -0.08824045942300       -1.49390798090917       -0.47596345493254
C           -1.12280823636298       -2.14338727780357       -1.17446057318321
N           -1.89056371243457       -2.70100867760424       -1.82574219255905
C            1.09934487045894       -2.23677739245082       -0.31484746776245
N            2.11462416472698       -1.96024695450132        0.50901968725689
C            2.48157257808927       -0.77575275500736        0.92472538615382
C            2.02487942040549        0.48909418225923        0.42968910812061
C            0.78507462649119        0.79375087014361       -0.04941864266455
H            2.74480440586702        1.29614032998118        0.48328559162806
N            3.47242419733861       -0.75669066125827        1.83561862040638
H            3.89221735459141        0.10780385132949        2.12512023178668
H            3.86852193411954       -1.62971611089078        2.13621278704115
N            1.21444737432291       -3.42677059244671       -0.93582578512235
H            0.44797429771751       -3.80383777260402       -1.46729501705921
H            2.00317309393748       -4.00595616832924       -0.70854449591183
N           -3.23359215373411        1.68906478416970        1.25289838649201
H           -3.66750380861870        2.59574113649287        1.29114420909319
H           -3.73813043380401        0.88164360225296        1.57874086845598
H           -0.54946771826021        3.74005581748185       -1.32453030287074
