27
 energy: -46.107327923164 gnorm: 0.000509337169 xtb: 6.6.1 (8d0f1dd)
N           -2.00868039561745       -2.67565570990341       -1.51460582584199
C           -1.77872138860003       -1.67064385645285       -0.99863290952433
C           -1.52705029286786       -0.45349609067066       -0.34769973167761
C           -0.18119283024086       -0.28530497434138        0.11943495897603
C            0.34359831727167        1.08954607744787        0.21643216816859
N            1.46621107583374        1.41544119250788       -0.40241345291126
C            2.56836400073395        0.72856873294991       -0.54800309273761
C            2.92015473131305       -0.45272001066864        0.15014847018155
C            2.02131753410949       -1.39098059173870        0.61645517995153
C            0.61111227138884       -1.36132730748087        0.41400292818489
H            0.11591698786704       -2.32128922867922        0.50938149277655
N            2.50723845760055       -2.50285939803814        1.24346139758791
H            3.49441909049637       -2.68835545683129        1.20788775139828
H            1.89858100431673       -3.29360619187760        1.36255752951134
H            3.97381646565399       -0.69263175432338        0.21380876451424
N            3.47908513517697        1.25577464984230       -1.40999509204090
H            4.43319194620151        0.94518708919122       -1.37436161929662
H            3.29167020161634        2.17766569878975       -1.76490978072139
N           -0.26703974505721        2.01869930179400        0.89375633643768
C           -1.54089511140742        2.15713321278709        1.19998935725743
C           -2.62546975462413        1.59635169583774        0.57279888644836
C           -2.60170584283648        0.44542481120866       -0.24787960155629
N           -3.75731865500560        0.13143173891352       -0.89805021879135
H           -3.85232378561949       -0.77649393309428       -1.32192186201889
H           -4.59594169169997        0.63676630612190       -0.67356167927302
H           -3.59897616463449        2.03239649619577        0.75530859374492
H           -1.72010590856976        2.90814538151372        1.96287978275243
