26
 energy: -41.556166973121 gnorm: 0.000591528868 xtb: 6.6.1 (8d0f1dd)
N            3.88802156334873        0.48722246712024       -0.64567642406024
C            2.60525539891961        0.30287157098438       -0.21133973798417
N            1.98870902495268       -0.73181356689390       -0.65886678255553
C            0.73721639476309       -1.14283866701511       -0.27271270022663
N            0.60001801398903       -2.54129673700901       -0.36559524529733
H            1.39085173201972       -2.93491203530753       -0.85833846041750
H           -0.27565113123578       -2.83565919912201       -0.77887808168463
C           -0.30648936299307       -0.36730250773186        0.10934945587465
C           -1.59202903374008       -0.97649459485920        0.52126383102369
N           -1.49289967417278       -1.92604804919647        1.49859418590832
H           -2.32044219168316       -2.44125851608046        1.74940971087968
H           -0.60902463299254       -2.39811621650988        1.59627282255090
C           -2.78582839005273       -0.61009266162307       -0.01051100108872
C           -2.98317557365407        0.50668374117737       -0.88387599738125
N           -2.34061388902252        1.61516351592237       -0.92729925965965
C           -1.25544414362442        1.90868674800481       -0.16051198986156
C           -0.26720205571460        1.08778376953386        0.26282017817856
C            0.88147053886943        1.62738973332337        0.98582158412701
C            2.15254653370969        1.26394051139738        0.79416019642302
H            2.94029973135142        1.73227823517248        1.37090584180234
H            0.66315224718526        2.39548514085767        1.72047898918078
H           -1.14946592416224        2.97561628739339        0.01089410410056
H           -3.84907457985991        0.46003761041050       -1.54066065317887
H           -3.66454420886697       -1.19410491550865        0.23789146848026
H            4.30236246851775        1.39870617904633       -0.55753296513425
H            4.17405855424811       -0.07279847618761       -1.43142277140002
