26
 energy: -47.190044924252 gnorm: 0.000226855041 xtb: 6.6.1 (8d0f1dd)
N           -5.00891684104874       -0.54670264780017       -0.45918610877321
C           -3.86257653628650       -0.56371042461465       -0.36440566345439
C           -2.45941615609753       -0.57005637704885       -0.24750667459037
C           -1.86056859932747        0.62062071954948        0.23639827702235
N           -2.68543879473416        1.60269233323189        0.65695652447738
H           -2.30927152567883        2.49796862625470        0.92177114666526
H           -3.68225454352371        1.49353979736169        0.56955755462059
C           -0.47406243128240        0.88905326873706        0.23724511502564
C           -0.10782144460617        2.22320659564044        0.52216522586874
N            0.14800669360157        3.31584783519806        0.77213013114195
C            0.63075788376385        0.05753758840314       -0.05505372043197
N            1.73411234838705        0.71109110826360       -0.36814177177106
C            3.00392871816482        0.40380423784751       -0.28358412761342
N            3.58064188823379       -0.49461622816173        0.54072373069228
C            2.95452518998807       -1.60014973215869        0.86053772885869
C            1.71317966250047       -2.08947365604745        0.45359690998005
C            0.60114657699050       -1.39781246891854       -0.04561628853688
C           -0.51740386468483       -2.14765191491589       -0.46136935481760
C           -1.82680348248684       -1.76628843940213       -0.60523696026783
H           -2.50271936294038       -2.53104382963076       -0.97168052049365
H           -0.30820705833492       -3.19086883080813       -0.66521251063233
H            1.54661601750688       -3.14237410637247        0.64739691925485
H            3.55884496293488       -2.26566829258204        1.47070544986401
N            3.85697199901376        1.14120187177162       -1.01465103146123
H            3.50552957746883        1.93670389463098       -1.51806668633099
H            4.83991173517249        1.05718935367635       -0.82465873329572
