30
 energy: -50.047812934169 gnorm: 0.000620966394 xtb: 6.6.1 (8d0f1dd)
N           -3.79806734564969       -2.40436454715610        1.52137149932629
C           -3.16864331295689       -1.58929373755360        1.00925094439789
C           -2.37589543079818       -0.60151685523804        0.39316673137568
C           -3.00102719161957        0.55382182293931        0.01324518401614
C           -2.44280627605034        1.65811495743160       -0.66507271956566
C           -1.13038979055407        2.02772932874574       -0.67548980226808
N           -0.71203800005609        3.11062114675672       -1.38277535318738
H            0.26796131035966        3.32847301031679       -1.41490909480886
H           -1.31369670193362        3.51915470095009       -2.07691338271228
C           -0.09612386568571        1.36562286288030        0.13926126111153
C            0.71795108036390        2.08996896756312        0.93222268142194
C            1.82069753921698        1.59799573912142        1.70586172473436
C            2.59733354803430        0.54173394610623        1.39965716335147
C            2.48948641093250       -0.27989353906909        0.21824594752108
C            3.67509526674844       -0.90057003184238       -0.21672072830039
N            4.62629663826626       -1.43378915970402       -0.58331842705495
C            1.34485871849273       -0.52072025186732       -0.49915594106237
N            1.37228989278883       -1.15178773457883       -1.70417519654644
H            2.24566650381829       -1.53127980920791       -2.03412245515263
H            0.52098749744886       -1.56338372195263       -2.04731138400927
C            0.01023590724187       -0.07921928135484       -0.04717726422701
C           -0.99900236880250       -0.97320731501817        0.10378016436872
N           -0.76660403734042       -2.33836912457388       -0.07226790913358
H           -1.48944925682669       -2.93329664919572        0.30805323364577
H            0.16073267654585       -2.65092830835097        0.17721599581971
H            3.45717018373667        0.33203505411423        2.02339619073879
H            2.08758049278660        2.19027084493163        2.57098698358671
H            0.50882819187478        3.14774880212843        1.03724142134241
H           -3.14334324345157        2.30794272134841       -1.17442772145396
H           -4.06966686312392        0.60026884312674        0.18804618962833
