25
 energy: -48.250761846590 gnorm: 0.000786140775 xtb: 6.6.1 (8d0f1dd)
N            4.88292235792365        0.32906341072372       -0.87490314620829
C            3.76135856165726        0.23593627699349       -0.64372606443389
C            2.40108553508694        0.06013187633635       -0.33550596020225
C            2.05527735736572       -1.07518022883656        0.51992657199793
N            0.92132036153090       -1.68876711362689        0.47460484604581
C           -0.25660706383854       -1.38931318037783       -0.06747388951463
C           -0.98329636404285       -2.40370320723672       -0.67939877071883
C           -2.32075306187354       -2.33258719918105       -1.07338146990066
N           -3.27322687421734       -1.60960107940181       -0.55126383180243
C           -3.15051405600018       -0.61529578053768        0.30759879432059
C           -2.06751559128831        0.22997483042860        0.48642350074904
C           -2.26571929856571        1.38109003695358        1.28068791995225
N           -2.42871380456620        2.26178490102142        1.99804887442225
C           -0.73661214079803       -0.01110881605731        0.00242605582519
C            0.09854237548300        1.04277619114170       -0.35970284556562
C           -0.50822893853688        2.30339032040340       -0.59047602864427
N           -0.95653731703738        3.32602018131313       -0.85042576556301
C            1.47851193667723        1.00583431076370       -0.69048634060775
H            1.84996378674177        1.88182054628273       -1.21039362496760
H           -4.07096713216874       -0.36848579154041        0.82725762646192
H           -2.66790535687542       -3.04488404249403       -1.81535214785114
H           -0.42720766961324       -3.29968471548173       -0.92011002649646
N            2.99411295347409       -1.52046840534634        1.36688407058447
H            3.92642007132640       -1.14385813007668        1.34410264283780
H            2.78796384925672       -2.30567241326305        1.96017231308098
