24
 energy: -38.132907174670 gnorm: 0.000638990306 xtb: 6.6.1 (8d0f1dd)
N            3.24393553666322        1.58674314063059        0.96013188391239
C            2.40405504027642        0.72948663080427        0.30799089114891
C            1.07201632294255        1.16378701350162        0.14350060510228
C           -0.04666398566483        0.43847710452361       -0.21931970415605
N           -1.15258673564377        1.11903293594552       -0.54959998685462
C           -2.39936460591078        0.83093006757715       -0.31067076676330
C           -2.89099551153997       -0.18007815187677        0.57284150205987
C           -2.23049608999714       -1.34721049760959        0.83836109476030
C           -0.99702478063490       -1.78130231968264        0.33373928701499
C           -0.00950311014245       -1.02355222955154       -0.27041575340405
N            0.97731442770020       -1.65231031553698       -0.92142720979630
C            2.24238619685254       -1.37667959882251       -0.96632617231931
C            2.95671150936121       -0.43273767509144       -0.22899608512344
H            4.03157976541809       -0.54424354891777       -0.17594658907571
H            2.81076579221653       -2.03438863852336       -1.61950550250655
H           -0.76258771634582       -2.83067396927811        0.45356023134836
H           -2.76564397977761       -2.07348604767852        1.43957704003002
H           -3.89705068748019       -0.05172828748602        0.94857148676939
N           -3.31699526052422        1.62081183000881       -0.92649783306899
H           -4.28014023161451        1.59211100600398       -0.64776951482966
H           -2.98613217757422        2.39830914898019       -1.46968824009552
H            0.88169560774684        2.20616525565870        0.36950532378437
H            4.23472613466672        1.42529905170123        0.91545807548989
H            2.93647340420638        2.52554002171922        1.14309404227273
