26
 energy: -52.000652246052 gnorm: 0.000519135000 xtb: 6.6.1 (8d0f1dd)
N           -0.20935203948122       -3.75752561118190        1.05029184072597
C           -0.51556208593236       -2.67992254212344        0.80381270967667
C           -0.88513583928286       -1.35108857158332        0.50021948382152
C           -2.22491697089080       -0.98638431620687        0.70012377972421
C           -2.88848726404393        0.13631668602602        0.24538877029224
C           -4.28381022858134        0.20130569881421        0.42255737632567
N           -5.42319779194352        0.28932100745776        0.54261309159663
C           -2.28932728730080        1.22987472445314       -0.49166203755811
N           -1.04985087524524        1.62291614134180       -0.36440695763093
C           -0.04427281162425        0.97388286350011        0.18123809728103
N            0.86114672418752        1.59444732014520        0.87719740742452
C            2.11032855577280        1.30580447408656        1.15206848590915
C            2.95791514544209        0.51759979821374        0.38374814088038
C            4.35015709998799        0.58691579466329        0.55571483047124
N            5.49368687944481        0.62026006651284        0.66269333158776
C            2.43747567141679       -0.40493199874621       -0.58946573699754
N            1.23719150280576       -0.92901095744419       -0.50485187920831
C            0.12870229918454       -0.49789227050679        0.03545734937337
N            3.24609638840452       -0.87493521308484       -1.55661698293049
H            4.23056596580331       -0.66856140851786       -1.52619901224070
H            2.92333622242337       -1.64097379579763       -2.12320747395859
H            2.51918410715599        1.84763942790526        1.99766427884848
N           -3.07944033202853        1.95443707892088       -1.29962883013644
H           -2.69404787665232        2.77285569737398       -1.73916403418292
H           -4.07512827878497        1.80845326917375       -1.30418691445669
H           -2.84283271642913       -1.73774992488928        1.17990951397434
