28
 energy: -46.615129384639 gnorm: 0.000564550255 xtb: 6.6.1 (8d0f1dd)
N           -1.94809482163180       -3.17431551590350        1.78966659480649
C           -1.13010757720997       -2.57574585980915        1.24513089099225
C           -0.12160841455335       -1.85871511598433        0.57236119582572
C           -0.50532996851933       -0.51818890322754        0.13818625163542
C           -1.82385948924101       -0.35136655533586       -0.18649699650211
C           -2.58375674483933        0.80688437930350       -0.51551622001567
N           -3.79404066868544        0.57031027911232       -1.08854917328481
H           -4.44950811713166        1.32547741400080       -1.18847577502362
H           -4.15563769089886       -0.36690020503269       -1.11703259975434
C           -2.23162366319077        2.11662467146764       -0.24049870240222
C           -1.05452734756920        2.54053086234385        0.37265221673588
C            0.12166080773209        1.85879789374275        0.57244369771970
C            1.13061508949579        2.57599909692240        1.24438787943108
N            1.94821457259108        3.17358131338508        1.79059161144542
C            0.50524237476092        0.51828923844928        0.13813100009915
C            1.82368632544870        0.35151749172006       -0.18689325855972
C            2.58348561147553       -0.80669158350478       -0.51627238461029
N            3.79366953150521       -0.57004006968185       -1.08947617602250
H            4.15527030937459        0.36717051321941       -1.11788150438628
H            4.44912971738457       -1.32518526753669       -1.18961767818206
C            2.23144059359975       -2.11645921266241       -0.24125842635384
C            1.05454192069246       -2.54040199760193        0.37224081192265
H            1.05088333035254       -3.57064221192879        0.71177572379869
H            2.97401254608052       -2.87640280281989       -0.44527056442771
H            2.40447401129763        1.26717724308273       -0.22331851593030
H           -1.05086160111584        3.57067466274254        0.71245929629588
H           -2.97423129426238        2.87659289633676       -0.44427904747468
H           -2.40464322144368       -1.26702214819914       -0.22303413077780
