31
 energy: -52.982368483598 gnorm: 0.000877923857 xtb: 6.6.1 (8d0f1dd)
N           -4.08371868990593       -1.27454145801271        1.36795605708542
C           -3.14214300403814       -0.79342126606656        0.90748271301299
C           -2.00329014429763       -0.21248219485193        0.33932891735550
C           -2.02173238200611        1.15695882881017        0.11688146338906
N           -1.16225715752029        1.83657616898514       -0.67337145555165
C            0.09542686703614        1.59676280146806       -0.81042309313914
N            0.76786217910918        2.20910064094399       -1.80445291710772
H            1.77109951678198        2.17119774502326       -1.81737405581261
H            0.27919877707849        2.82892913853117       -2.42722200238676
C            0.87041312857422        0.65383575868979        0.02615134825518
C            1.98618177396442        1.01684086807424        0.71426792581732
N            2.39371704002921        2.35831558763856        0.73803166391114
H            1.64141099267509        3.02760603989563        0.65026543323193
H            3.00507927352679        2.57528775883157        1.51223378844916
C            2.80072734318806        0.08740714400011        1.44948192891355
C            2.93923612375691       -1.23023997765258        1.17402878709870
N            2.51605185762054       -1.88620165872043        0.06944024226091
C            1.45565222206596       -1.61304117089578       -0.59527788952757
N            1.29715969233765       -2.12180868192205       -1.84272566554389
H            0.36536883927173       -2.18853257282514       -2.21497536266093
H            1.99458178113906       -2.76427418546470       -2.17944863513044
C            0.37474289430942       -0.70442261766418       -0.12507751083685
C           -0.91769145379384       -1.10137849541233       -0.02753331655463
N           -1.26774761598754       -2.43445961585109       -0.28689731123081
H           -2.16548688949437       -2.69345459632015        0.09994927826005
H           -0.54782440492496       -3.10282182304806       -0.04888780248013
H            3.58060776572916       -1.83799226500392        1.80129025610129
H            3.39488823903524        0.50369524300023        2.25306814060541
N           -3.03438809338463        1.92634805075432        0.62198559792008
H           -3.15361238995735        2.83325362302962        0.20356045070142
H           -3.86418950321761        1.45529400563609        0.94429373229422
