31
 energy: -60.175051321324 gnorm: 0.000981059039 xtb: 6.6.1 (8d0f1dd)
N           -5.82776207108405       -1.18456963909909        0.66719768872631
C           -4.73183725738825       -0.94057770373460        0.43387314455238
C           -3.37643785179705       -0.65496502366410        0.14710197937263
C           -2.83479453369231        0.48354199552325        0.69351812999888
C           -1.55880087622007        1.02348003961993        0.44251356700954
C           -1.38300897387114        2.33266950164849        0.96296840427693
N           -1.25370822764941        3.35319325197623        1.47009358050818
C           -0.41839895038080        0.43782783581612       -0.12033889506617
C            0.62256826311804        1.32540321242298       -0.55665953327015
C            0.16670475130482        2.52049180733488       -1.15348595566244
N           -0.16023252362383        3.46264776849275       -1.72464140690078
C            2.00731375343887        1.16815273907740       -0.47472059384832
N            2.79987851116173        2.14879334087779       -0.94840649575622
H            2.38844230839044        2.99450502604252       -1.30945982756160
H            3.79286328406168        2.12209451350074       -0.78515757697662
C            2.66556653623772        0.06746056066655        0.17090808202842
C            3.99777082814943        0.29405868043055        0.56765089937044
N            5.08751726573754        0.46779895771836        0.89073502407644
C            2.16281374172280       -1.21450214506000        0.37144812424474
N            2.93182258855716       -2.12677125586768        0.99493017832402
H            3.86472861608820       -1.88503697377267        1.28754612080325
H            2.63341355016201       -3.08567521495675        1.06433073779974
C            0.88940039723703       -1.68608493840722       -0.12771610857345
C            0.83246853481872       -3.08749828495088       -0.30546329416552
N            0.83099906416902       -4.22894508458129       -0.43495456109811
C           -0.27994580629552       -0.98273252228027       -0.34318492650152
C           -1.38614889667544       -1.70135971191551       -0.93032176016951
C           -2.71607767532477       -1.55630983071539       -0.73745764582468
H           -3.36679612259458       -2.24501215344699       -1.26181728308898
H           -1.08045997128491       -2.49297957110479       -1.60449336151958
H           -3.48283865027480        1.09154794810926        1.31426862749137
