32
 energy: -57.510960728101 gnorm: 0.000802587204 xtb: 6.6.1 (8d0f1dd)
N           -4.73402881428910       -1.29562452221569       -0.92027556802573
C           -3.74111380806701       -0.83789571701199       -0.55454749008419
C           -2.53997301742312       -0.28910263170466       -0.09160445106349
C           -2.63543501278391        0.60257543689848        1.07286974640149
N           -1.92807708045947        1.65234130152284        1.30437123695282
C           -0.86148061506560        2.03801585289837        0.55391988511030
C            0.03980322435196        1.25469642429738       -0.06867592204948
C            1.16790124528864        1.83198347607397       -0.82692163356077
N            2.41012435049589        1.54926391104999       -0.64527204554440
C            2.89601144991687        0.57963516885291        0.15830535987896
N            4.11058829487219        0.87257158722274        0.69648840374404
H            4.58101345170863        1.69053552167732        0.35126973770064
H            4.66197210005040        0.13119524583996        1.09431953678668
C            2.32075716353687       -0.66925250401256        0.36558535658328
C            3.12206424676195       -1.64261618061834        0.97533604857560
N            3.78939014335909       -2.44226806308055        1.47030504593631
C            0.98734625850778       -1.06865108114654       -0.02699433201926
N            0.79786671698275       -2.44362535639967       -0.19481770626306
H            1.53919431399212       -3.00476679973681        0.20240900721088
H           -0.11722880828588       -2.78570714063831        0.06179427454862
C           -0.05323341235248       -0.20320513905896       -0.20515069785492
C           -1.35829645781473       -0.66142931441205       -0.69190350885184
N           -1.35910032292102       -1.45820364519226       -1.78610582424695
H           -2.22658350498587       -1.83488028417862       -2.13191248937029
H           -0.49121327253157       -1.84978441139372       -2.10769345598973
N            0.84726523673111        2.70803930840921       -1.79776980910353
H           -0.08935240555531        3.06549398649706       -1.85991607107321
H            1.58202174205198        3.13571724565749       -2.33556427082410
H           -0.70180104114934        3.11117867530177        0.58064674442326
N           -3.62045101845176        0.30159823715348        1.96173199438114
H           -4.37016415821449       -0.30580562343243        1.67624780942527
H           -3.81324316076009        0.99031003287604        2.66934788546662
