30
 energy: -49.252716219628 gnorm: 0.000506561417 xtb: 6.6.1 (8d0f1dd)
N            4.81981819515938        0.33990876845870        0.58260557066464
C            3.75845120436271        0.05952623853124        0.23450647139304
C            2.45202121610083       -0.23838252327238       -0.18749321181532
C            1.42020531700528        0.45086096611006        0.40456370260533
N            1.62981670414012        1.23904049284784        1.49408616955078
H            0.93138040763177        1.92666633980550        1.72076183346108
H            2.57521125246392        1.40043400070063        1.80350369222382
C            0.02849913916346        0.35977145611177       -0.06029319183969
C           -0.71497452997193        1.48033496804037       -0.31910162489926
N           -0.09427239333489        2.73940758088956       -0.28153844531365
H            0.87588202532185        2.73515125304248       -0.56561964190348
H           -0.61907336891516        3.45304389737368       -0.76629563014013
C           -2.09758346902576        1.47990976241984       -0.66427548883443
C           -3.01369898687073        0.51204148173720       -0.35903337132313
N           -2.82923232933307       -0.50783951527772        0.52006914759740
C           -1.72732030396419       -1.13304262287081        0.71446394624031
N           -1.64299628452577       -1.99520933540823        1.75187590111874
H           -2.39093849999928       -2.03459028054147        2.42182025974466
H           -0.78669368227898       -2.48702117311045        1.92944544942913
C           -0.49932784835179       -0.99613860804842       -0.10890127906497
C            0.05739923610606       -2.04729035286718       -0.73281081434495
C            1.28821745235755       -2.02908291769414       -1.47634075789525
C            2.33800202039412       -1.22274477822297       -1.24086733326644
H            3.24296618868122       -1.36906684420910       -1.81825414338357
H            1.38807085973085       -2.78840309062194       -2.24091431902628
H           -0.46780734027159       -2.99465486724436       -0.70738100972088
N           -4.29849383082307        0.57319097800369       -0.85785805627822
H           -4.62803120191787        1.47621376154412       -1.15711145021801
H           -4.96887404770498        0.01544459109349       -0.35397087530996
H           -2.46366212242861        2.35938061348059       -1.18016481645107
