21
 energy: -34.977826181459 gnorm: 0.000995584603 xtb: 6.6.1 (8d0f1dd)
N            3.18632495695011        1.19683296338283        0.95643160376024
C            2.22091394298820        0.52913008224364        0.28162555991001
N            1.06589545544994        1.15690599655226        0.17859317408304
C           -0.12033336053437        0.69791576472118       -0.14751650494889
C           -1.11090414988554        1.47668149359940       -0.74605989921193
C           -2.47585292278506        1.22308142376951       -0.71462065281504
C           -3.17046808268796        0.34272016002390        0.10374343846337
C           -2.58866798500043       -0.55687700544150        1.00021570474490
N           -1.39400854192002       -1.07391436822824        0.94458384773867
C           -0.41082899862278       -0.72980027107993        0.13233966814629
N            0.34933730231221       -1.62301688786949       -0.42911965064135
C            1.59779149365690       -1.54068147715488       -0.85339525234249
C            2.55855808285279       -0.66036887892386       -0.41593167579099
H            3.60237238481651       -0.86560185849120       -0.60296081746996
H            1.88231344806138       -2.34992951321521       -1.51732233688018
H           -3.20389933377524       -0.95331572145670        1.80207490029464
H           -4.24867235447503        0.42428830512523        0.12091544622951
H           -3.08651613821801        1.89336296573556       -1.30846473520470
H           -0.77165944480246        2.34993303778176       -1.28701242396164
H            4.09715424255107        0.79583090204464        1.07841100181493
H            2.94476115686779        2.04565757028151        1.43561591128219
