26
 energy: -42.369608219103 gnorm: 0.000553264899 xtb: 6.6.1 (8d0f1dd)
N           -0.97019351990754       -3.54966180631170        1.14130917553111
C           -1.06110609462984       -2.46369159463200        0.77443335189851
C           -1.19478688377675       -1.12073046646976        0.37316277797609
C           -2.45915611074163       -0.55988314092226        0.47999220748742
C           -2.89584263369475        0.68979626356095        0.08976247241879
C           -2.11521441787279        1.78792035328748       -0.29326708280812
C           -0.71616391636151        1.88057445686526       -0.23859714875029
C            0.24750653492385        0.89647011373725       -0.07463876609710
C           -0.01460983406722       -0.53333661800901       -0.19294292361492
N            0.79300414410287       -1.34554254711627       -0.80058766468759
C            2.07788835089501       -1.31917233672699       -1.08960340200532
C            3.03825501871681       -0.58221831342153       -0.45169927777545
C            2.76277114339027        0.60640149046971        0.27517980551077
C            1.55574517183458        1.28958189473080        0.29724912022713
H            1.60465598378393        2.28066829273809        0.73750930254493
N            3.82799822757734        1.18816584834543        0.90311127989107
H            4.75096452693714        0.83190900029478        0.72880631092356
H            3.75137737313881        2.13447820905902        1.23262761098642
H            4.07659626216026       -0.85648565580401       -0.57420817820059
H            2.37222977021541       -2.06148709056923       -1.82354645339303
H           -0.32904288407167        2.88980550818613       -0.33721068357088
N           -2.78472897466161        2.91336673188562       -0.67536389636467
H           -2.28399650179652        3.77607038008651       -0.79265531408322
H           -3.78057527179330        2.96280554910285       -0.55333504691352
H           -3.96398693603430        0.86249741423408        0.12709250512682
H           -3.22173738996705       -1.22876371830068        0.86320656864211
