28
 energy: -45.801866496363 gnorm: 0.000635907742 xtb: 6.6.1 (8d0f1dd)
N           -4.81783758297520       -0.59965667861684       -0.47279650249885
C           -3.74624995184804       -0.31027447079905       -0.16751354585950
C           -2.43200805873807        0.02801559584028        0.19155403921951
C           -2.27383990892485        1.07322287331260        1.18362294221876
N           -1.30350061344611        1.88566083478165        1.33543626968222
C           -0.15960198697165        1.88539838495785        0.59300609719839
C            0.50140507949368        0.83651436411734        0.05502322461275
C            1.76804710320658        1.06137808343384       -0.66212946153396
N            1.77618593397206        2.16121946878597       -1.48547069029085
H            2.50996778477186        2.23181594062303       -2.17076244666252
H            0.88834093952313        2.55886562031428       -1.73979055293046
C            2.89221896957882        0.32634366166766       -0.49731961466706
C            3.08786624759684       -0.82948938019483        0.33144702908610
N            4.41093340146693       -1.13869596886756        0.58986746625413
H            5.06413496786510       -0.37284165837990        0.58145727440728
H            4.57450421851071       -1.82281027348492        1.31052735860430
C            2.11419474857424       -1.70861729652452        0.70924111937429
C            0.73742057755734       -1.63798008295378        0.37503133470707
C            0.00704200010094       -0.53903233396339        0.06965182113702
C           -1.39395842821438       -0.69358448515398       -0.35454211466458
N           -1.62074054701371       -1.62044676916799       -1.31342531270614
H           -2.56283874866260       -1.81604687985637       -1.61075417776181
H           -0.87996218942482       -2.24258663454578       -1.58671978685393
H            0.20347328799172       -2.58066932987496        0.43817581993315
H            2.42934248531345       -2.60127604582765        1.23438146977405
H            3.78039396499994        0.66531023876418       -1.01871210035106
H            0.29970096467550        2.86686483717897        0.55704632335978
H           -3.12665553887570        1.23677975652912        1.83648421390861
