22
 energy: -39.482736397221 gnorm: 0.000461115982 xtb: 6.6.1 (8d0f1dd)
N            4.56126377959882        0.31388026763334       -1.06952227585939
C            3.50695734961431        0.17922347231972       -0.63713318047579
C            2.21391203665189       -0.01433803517303       -0.10264160941688
C            1.20161484133061        0.78686277960917       -0.51030410083752
C           -0.16509121104285        0.71964734506772       -0.02845257989713
C           -0.89924600150066        1.86439538378037        0.09536011892192
N           -2.10669518967346        2.01968661015093        0.67866400073433
C           -3.00183816297901        1.09795024799308        0.74281981926833
N           -3.08454883427990       -0.01834412955160        0.00117034921902
C           -2.08788035987511       -0.71539229998113       -0.41081403900128
N           -2.24970274436749       -1.58522319538221       -1.42192011340634
H           -3.14398931117231       -1.64139563931574       -1.87887562613014
H           -1.52961350661686       -2.24468475028600       -1.65592492041872
C           -0.71670117101399       -0.62254156464774        0.17445579135049
C           -0.08936332380106       -1.69665288738721        0.67946015512397
N            1.13137974949537       -1.72548566160732        1.30830129862069
C            2.11882815586824       -1.00540423935078        0.98134989576781
H            3.02636133558309       -1.14596532537172        1.56124891853065
H           -0.60395314131885       -2.64911796781366        0.73178196463987
H           -3.88324556912673        1.31199382726823        1.33621375663143
H           -0.42097022649334        2.80750261277668       -0.14805249820115
H            1.42843367101864        1.57773436316926       -1.21924936086403
