23
 energy: -38.424173174055 gnorm: 0.000666565953 xtb: 6.6.1 (8d0f1dd)
N           -2.70648141506967       -2.00769514999294        0.93330730463426
C           -1.92081816441001       -1.06121219661951        0.37516972908809
N           -2.47949638879568        0.12040865217035        0.24606716724364
C           -1.81743678441622        1.15268662080433       -0.31879876869528
N           -0.55590482009798        1.46492344566921       -0.22713985643473
C            0.50131332789105        0.70201191403121        0.06200779807291
C            1.58431287608299        1.33881730233183        0.65667945522898
C            2.87909991496148        0.85265845305387        0.84856304370443
N            3.51974524854311       -0.10818246733523        0.24253002406394
C            2.97114025653215       -0.97323730354733       -0.61871846072550
C            1.67021534271915       -1.33793140426650       -0.79771041789733
C            0.49272300969549       -0.72430431389533       -0.26032971976666
C           -0.63917963143832       -1.48445014850447       -0.09376227473921
H           -0.53242549316220       -2.55270602834629       -0.24357186149433
H            1.48887753195926       -2.21938855300162       -1.40231181205052
H            3.72376857907277       -1.53857312940234       -1.16275767649362
H            3.50627746133760        1.41320387894876        1.53869675877790
H            1.36999472888889        2.32689518140809        1.04384969760574
N           -2.61555028490516        2.03735318107485       -0.95905540730828
H           -2.22461170156984        2.92216450091155       -1.22995065538490
H           -3.60881415388684        1.94585358136002       -0.84370488053429
H           -3.63409696818039       -1.75229176738473        1.22056914622828
H           -2.40486846005171       -2.96167643316910        1.00025400487726
