24
 energy: -42.949203153006 gnorm: 0.000674301599 xtb: 6.6.1 (8d0f1dd)
N            4.75686448705096        0.96821126850733        0.20178287978368
C            3.63144814515399        0.73083119031926        0.24185169750994
C            2.26141945807856        0.41881895685331        0.27465359630266
C            1.45087691260302        1.23692035018611        1.06042512810163
N            0.15220692229771        1.37061619643246        1.01249258551454
C           -0.70336975403206        0.56678167954733        0.42392992859225
N           -1.77047430295992        1.03813970252378       -0.15994956862814
C           -2.95534099872150        0.49804345480678       -0.37512881453655
N           -3.69968894893686        1.08385684005788       -1.34537709774595
H           -4.68476672273293        0.89587338815205       -1.39642648613792
H           -3.35080101279419        1.93256087089969       -1.75686306420429
C           -3.51285179915135       -0.54148583049734        0.40595711861948
C           -2.71875494992682       -1.42924929207318        1.10003460836899
N           -1.43845523046616       -1.66594485065233        0.89497842438581
C           -0.50984776428354       -0.90797298696481        0.37768333790579
C            0.63118250002342       -1.41678599312056       -0.24408268935364
C            1.84936385537844       -0.76803745076278       -0.41932138801273
N            2.78078660203812       -1.36630431741744       -1.20334345333575
H            2.60999937612755       -2.29007960822109       -1.55939128793709
H            3.72663159375095       -1.02175095644006       -1.20260759085875
H            0.55487653668660       -2.42703017576083       -0.62697156171175
H           -3.18292104451237       -2.12719249754793        1.78850419644392
H           -4.58604100978765       -0.66024881944245        0.42225522821153
H            1.94611938461751        1.94699335842356        1.71554406172628
