22
 energy: -39.495899084278 gnorm: 0.000680187214 xtb: 6.6.1 (8d0f1dd)
N           -2.51351154983368       -2.65055281284675       -1.17097728631175
C           -2.11844365340753       -1.63094485451022       -0.81810633462072
C           -1.64676202824463       -0.36995951644802       -0.40038694317894
C           -2.52632135618900        0.70622245205732       -0.58394940373521
N           -2.51619175472192        1.88202274052668       -0.01840742448454
C           -1.51461386125547        2.44066513076709        0.64538750592972
C           -0.17442523917573        2.14311667350010        0.60199140647529
C            0.42510577546008        0.94290086676541        0.15004105889505
N            1.69866707979768        0.99461772922176       -0.15508775294079
C            2.61877550714620        0.05399885575211       -0.21251731670585
N            2.70240182068791       -1.03497337585527        0.56985350690860
C            1.62195522067630       -1.67560794671396        0.94955301359991
C            0.28983613852869       -1.47554433110798        0.59089181907255
C           -0.31742062684639       -0.31448200206332        0.09794393331995
H           -0.38033449819091       -2.30222832737472        0.79267573151422
H            1.83840335464770       -2.55373632769171        1.55065345475528
N            3.67102746848294        0.27630545288759       -1.01408986666012
H            3.72413365019660        1.12430016755554       -1.54958415757261
H            4.45076784827031       -0.35539020695288       -0.97369954327184
H            0.52541677872644        2.88275167496643        0.96755849224663
H           -1.81586591033889        3.33517019593876        1.18250451661862
H           -3.41160348291516        0.51534459212654       -1.18478006755247
