30
 energy: -54.068650109645 gnorm: 0.000792747851 xtb: 6.6.1 (8d0f1dd)
N           -4.16889364665758       -2.45735724619008        0.56507031304247
C           -3.25604939946609       -1.80355393965304        0.31600171005304
C           -2.11528610707642       -1.02780075717738        0.03255694614766
C           -2.36266309757728        0.22038935628915       -0.61503571886658
C           -1.55784027475666        1.31442773219803       -0.67373094179906
C           -2.04695826257356        2.45135774690438       -1.34724563568810
N           -2.41324189571775        3.39479234245225       -1.89278483358018
C           -0.26400799912399        1.47249165846659       -0.00889896106039
N            0.04295086186383        2.76467247429482        0.41533576554848
H            1.02866701585547        2.96574865536633        0.49549500653462
H           -0.46822963744562        3.49260918743411       -0.06345309264564
C            0.56361485551002        0.44047591824659        0.25080039710433
C            1.82649330418505        0.61229692609758        1.01973550481401
N            2.99780788491257        0.38378727902410        0.54244143753547
C            3.21529725492338       -0.27678977873842       -0.62862303884403
N            2.58993412517609       -1.32877152678493       -1.06462286126419
C            1.38415142046888       -1.72959106378044       -0.61216595729499
C            0.38402105142431       -0.97628693002806       -0.07507892534195
C           -0.88101070249655       -1.59552323536464        0.30831155947340
N           -0.80871798139279       -2.79124660210937        0.92932191962372
H            0.07652503230422       -3.25987429220915        1.00448088691731
H           -1.65233868459969       -3.29891519124961        1.14437821333581
H            1.18764749408519       -2.77228985071510       -0.84354541107559
N            4.31144309272995        0.13817006261815       -1.31811068188620
H            4.66005919357207       -0.48987796605029       -2.02190401841752
H            4.97278050949957        0.71771563900096       -0.83122540052181
N            1.69488296601440        0.99754617503141        2.30324124789408
H            0.82007353963579        1.37131555707409        2.62538307293807
H            2.51751079538902        1.09492718136206        2.87356080652019
H           -3.34615133364440        0.31114645778229       -1.06336127189296
