29
 energy: -50.342765081678 gnorm: 0.000882215882 xtb: 6.6.1 (8d0f1dd)
N           -1.43272363743644       -3.62074107573675        1.32061755011270
C           -1.57515075533666       -2.54849805889700        0.92808281188218
C           -1.78689469136723       -1.23471933907855        0.46310438342405
C           -0.59927201114019       -0.49058108542940        0.09835721781482
C            0.49923585822612       -1.25848262240193       -0.21533582719255
C            1.86137608118046       -0.95570170451975       -0.43172871419921
N            2.61062288283144       -1.96033913299506       -0.94686673407967
H            3.60953875244964       -1.85974205543333       -1.01225959256431
H            2.21040758966060       -2.87417628115463       -1.06380668883716
C            2.51040701457572        0.24156166194790       -0.10788968791015
C            3.90172757286810        0.27875535541542       -0.27485564838208
N            5.04542339487424        0.31137987374954       -0.41862617440921
C            1.89141880091203        1.42681820010509        0.40058911855645
N            2.74406998875166        2.39165727514552        0.84226243412762
H            2.38900777211211        3.29751521084157        1.08890972864080
H            3.73489584321243        2.28496992170614        0.70859454225160
C            0.54252725926209        1.71342406782128        0.42972918400102
C           -0.61772850488351        0.96058174546158        0.13366643894364
C           -1.76574396491137        1.71282548824177       -0.10372368443447
C           -3.09802617204425        1.33304864181524       -0.34759651093650
N           -3.72502107601581        0.20374628932083       -0.03117862408727
C           -3.12251212149110       -0.86760774707117        0.43693772868030
H           -3.82411709051844       -1.61764284420404        0.79502096539944
N           -3.92237054938417        2.26220426706280       -0.88730761784431
H           -3.60596281524307        3.18892412358005       -1.10438565213969
H           -4.89095117609809        2.02201850691744       -0.99720253859055
H           -1.59780614894583        2.78087080928058       -0.19171940495108
H            0.32863518287695        2.73765722527728        0.71860259055394
H            0.29031851751938       -2.31774018207381       -0.32316416803049
