28
 energy: -40.994661635351 gnorm: 0.000679904685 xtb: 6.6.1 (8d0f1dd)
N            3.98878705931521        0.55857425509299        0.70981388541441
C            2.63320401713998        0.47916381387810        0.39844100777469
C            2.27763058893068       -0.62607391555139       -0.44920850288621
C            1.05370706453410       -1.16387893343992       -0.63929605148127
C           -0.17310130846214       -0.74356172854964        0.06299038965846
C           -0.97411787131615       -1.67700750945475        0.61917644510000
C           -2.24981536686433       -1.47496887665454        1.23625947303750
C           -3.12344390006084       -0.48759435766986        0.94655368880744
C           -2.95153217567892        0.54969150646716       -0.02043512846689
C           -1.78339451375364        1.05934562446267       -0.47579943547415
C           -0.44680753896971        0.68854882967306        0.02910331320188
C            0.44317688248273        1.65488748525741        0.34461056021731
C            1.80331266186326        1.50081816635065        0.74024878556396
H            2.23457039237050        2.33077934203203        1.28675462878935
H            0.07308190321642        2.67372610216378        0.35461844493540
N           -1.77905221163271        2.06767612651043       -1.41917710896316
H           -0.89743248610651        2.26552875766022       -1.86274461312548
H           -2.59470713916387        2.15956390553417       -2.00305974567175
H           -3.86422683131277        0.99431345121572       -0.40148514220458
H           -4.09743555177281       -0.51848155510893        1.42007814779629
H           -2.56075896996472       -2.24616409418968        1.92965627945121
H           -0.60576416943500       -2.69635256441199        0.63549453829430
N            0.89064201313507       -2.24821792861468       -1.48149934560090
H            1.59153939828718       -2.38514978267424       -2.19247356383727
H           -0.05423717166306       -2.45248968464231       -1.76341282555214
H            3.11069274956122       -1.09381261167266       -0.96234746582635
H            4.21668021628832        1.19986002042254        1.45385171239333
H            4.46772032493232       -0.32551502368680        0.78284954335475
