25
 energy: -42.664382955541 gnorm: 0.000580167374 xtb: 6.6.1 (8d0f1dd)
N           -4.92215855872787       -0.20227641558598       -0.41761914810463
C           -3.77390613412254       -0.21018118218452       -0.33270570705967
C           -2.37194523925639       -0.19731025817741       -0.22614440028528
C           -1.71862509408620       -1.31721613167424       -0.77117638351615
C           -0.41433779440417       -1.70792633593198       -0.65466890929046
C            0.61699037438975       -0.99993218536474        0.00402458065438
N            1.56507383469056       -1.65730202439164        0.59994724092034
C            2.75421060526120       -1.29873614812621        1.05828068007713
C            3.55352027525561       -0.30514682362846        0.55881023275853
C            3.01994941415692        0.68413193867957       -0.31535613293899
N            1.76657792498368        1.05378944159840       -0.35844970176808
C            0.64111423258272        0.47714292117764        0.03730410873135
C           -0.43585432122557        1.26853054413116        0.38847372542576
C           -1.79755182343567        0.94223715593529        0.38997764307250
N           -2.64817625368032        1.85087928081976        0.93215453253657
H           -3.64106588958985        1.73938892535848        0.81435909517519
H           -2.29648007353346        2.73587149352890        1.25027642692375
H           -0.19464412329417        2.29590352754790        0.63479715580398
N            3.87794186543730        1.43656459317550       -1.05271707388033
H            3.48919577910497        2.09082501869866       -1.70872307322077
H            4.83326623827421        1.15006213248992       -1.15941181708718
H            4.60628297610453       -0.27851310918299        0.79482794992405
H            3.14736897557214       -1.97776743983342        1.80788528013950
H           -0.15154023482965       -2.69804070720103       -1.00128430230261
H           -2.38244641763297       -2.01430326876295       -1.27103346838965
