32
 energy: -58.306885028641 gnorm: 0.000907657173 xtb: 6.6.1 (8d0f1dd)
N           -2.55068092277098       -3.71723963395403       -1.42782391335611
C           -2.17967019503982       -2.71232802793061       -1.00711037968892
C           -1.73922121143432       -1.48879825498767       -0.47395169621455
C           -0.39223543946228       -1.48201438791562        0.02231806238183
C            0.42000751740208       -0.41909181143621        0.19011154688661
C            1.75311862819886       -0.61959271611091        0.77522034180288
N            1.80472143995954       -1.38280492568687        1.88826323157765
H            0.98087437721522       -1.86096318672079        2.20661912340878
H            2.69373979060043       -1.60857825548099        2.30397038025412
C            2.90035272874401       -0.08983255005631        0.23286058993396
C            4.13874918791003       -0.42046645518253        0.80033111450222
N            5.16378747151247       -0.68342047101625        1.25507136400351
C            2.93375552928033        0.73388989687380       -0.97946868990411
N            2.06456156633912        1.61796116720425       -1.33671609979348
C            0.88340458711887        1.85076828029796       -0.72410008128506
C            0.06374946963750        0.97807755083310       -0.08810350060090
C           -1.21224456265189        1.45270132800314        0.44711851103060
N           -1.16351856526104        2.62361379496249        1.11813398187162
H           -0.30604729764019        3.14497451035034        1.15099280042187
H           -2.00832859388810        3.04403144897313        1.47005219404609
C           -2.41756912082753        0.79723928104302        0.29576530652851
C           -3.56232207223160        1.45034108107974        0.78598962921329
N           -4.49332932903595        1.99111284579381        1.19389902334838
C           -2.65947759557587       -0.46140119188079       -0.38194477226556
N           -3.90970788461396       -0.63163725030202       -0.88460852523811
H           -4.17697453121610       -1.53895288409782       -1.22860740659529
H           -4.63398168508599        0.02900607130513       -0.66049955493751
H            0.52653783168999        2.85940760707770       -0.91015495305234
N            4.02655586732812        0.58590204007519       -1.76507077904579
H            4.13806657616515        1.22863987421879       -2.52997889771496
H            4.83020741489638        0.08648807407164       -1.42533487010427
H            0.02031582233873       -2.46926947040281        0.20110072988312
