27
 energy: -52.495692279221 gnorm: 0.000841002130 xtb: 6.6.1 (8d0f1dd)
N            0.20487970722166       -4.23395094849572       -0.67787292667022
C           -0.36916032837309       -3.25500473620013       -0.51079907556563
C           -1.08439431330089       -2.04877319193669       -0.31867473393065
C           -2.45289955822430       -2.07895288074037       -0.63339889966930
C           -3.41665393392085       -1.15592228339900       -0.30965119421123
C           -3.22888687209467        0.06635470899155        0.34714825225355
C           -2.05741243176641        0.76795374799665        0.52439925231615
C           -2.14880344179132        1.98812832474652        1.23729002689640
N           -2.22731138221643        2.92561181848403        1.89358556509011
C           -0.73463111844361        0.40953044044734        0.08175727868546
C           -0.30393110691192       -0.97301589933239        0.13692699515429
N            0.87137549865312       -1.26257992954165        0.68242882900278
C            2.03843456581324       -0.71413616627679        0.64689770405833
C            2.40789967451426        0.32868381484404       -0.30988685427679
C            3.76791508492079        0.43446673113916       -0.65092930957153
N            4.88756999946627        0.47708092162840       -0.90320052242677
C            1.51154722631431        1.27548757886574       -0.72549647922021
C            0.13880473624350        1.39310131100101       -0.38338488307652
C           -0.42521610887699        2.64712180475101       -0.72979383385668
N           -0.84419863689704        3.65331731058081       -1.08542336995315
H            1.90481502602787        2.09254500488148       -1.32030694069199
N            2.97102207965101       -1.12871371819022        1.51254628511945
H            2.74667296203516       -1.87241747989098        2.15180034823851
H            3.92624592544853       -0.82680018565348        1.41798331087662
H           -4.12434084878606        0.55722146283179        0.70951539341744
H           -4.44085075319992       -1.42159655899209       -0.53050513733650
H           -2.78973690618805       -2.99698169627138       -1.09977058101468
