25
 energy: -42.652569253271 gnorm: 0.000436287889 xtb: 6.6.1 (8d0f1dd)
N            4.17865961834520        0.83847541752176       -1.53044715909589
C            3.16652171468466        0.60443619276343       -1.03799236151429
C            1.95149448563222        0.26929957153572       -0.41072159678864
C            2.02975950750251       -0.83021780028969        0.59187617830544
N            1.11531015250408       -1.67618330390742        0.88282116699457
C           -0.14952388980589       -1.66290697615359        0.36056314228548
C           -0.89992254847765       -0.60347852787694        0.01328811867438
C           -2.28870646259835       -0.79856294478855       -0.49445599149602
N           -3.34251358380107       -0.24775133245618       -0.02079107731592
C           -3.39910003484839        0.81331848988945        0.80807342354096
C           -2.51969493736447        1.84881955290762        0.85156963610577
C           -1.23631742345125        1.86659856593989        0.24287087531441
C           -0.46493602172589        0.78996018387451       -0.08495419703192
C            0.84678030313335        1.01008878490744       -0.65568081315670
H            0.95733874300261        1.87348802695826       -1.30578136883795
H           -0.77792420421927        2.84271219144822        0.13187108855411
H           -2.82144320949965        2.75086572925492        1.36579563291572
H           -4.33696260064009        0.87926672395515        1.34603676397714
N           -2.40656533663765       -1.63032358551790       -1.55300132445296
H           -3.32156318210738       -1.79987223841224       -1.93321924733841
H           -1.64263583989455       -2.22410450339746       -1.81963072404802
H           -0.59566825653816       -2.65194016883063        0.35735808344992
N            3.21131904058536       -0.91186722879180        1.25170617049456
H            4.02450022655406       -0.43654406019767        0.90036529792835
H            3.33558042226186       -1.69114234873741        1.87457965143091
