25
 energy: -47.471968671675 gnorm: 0.000869134833 xtb: 6.6.1 (8d0f1dd)
N           -5.02893241910161       -0.53135581814647        0.53200494055306
C           -3.89248630121193       -0.36449501620510        0.47754277575767
C           -2.50946155167012       -0.12939779940787        0.39261852636259
C           -1.66102921336477       -0.94345467236189        1.14346258328392
N           -0.39266758895472       -1.13617130831756        0.93326611093017
C            0.50342356737680       -0.44904674414243        0.27558803749916
C            0.40847421561479        1.01116688742148        0.12560498221468
N            1.43275807438303        1.81064601309683        0.35872986984593
C            2.71389346950304        1.51331774955207        0.31003676855709
N            3.31137491501804        0.60788548458423       -0.48825288793653
C            2.75841747403601       -0.52135495327432       -0.83502075006741
C            1.57085978538262       -1.11471846392400       -0.37727853222338
C            1.38151436170370       -2.48089755267654       -0.67365915142986
N            1.24309563587467       -3.58979511096150       -0.93628740018902
H            3.37418164770954       -1.12290077645909       -1.49807992672444
N            3.55418030474812        2.30649091566383        0.99446880353162
H            3.19033936984018        3.08550755548896        1.51318607771936
H            4.54224843119112        2.20512773706304        0.84510019323114
C           -0.79379638091354        1.55766962215887       -0.32271117560151
C           -2.07370308598364        0.99983286305679       -0.37058426606015
N           -3.01876262559906        1.66206953379467       -1.07336527480447
H           -2.79919758676006        2.53367577407715       -1.52175962087769
H           -3.97738616286492        1.35746166323731       -1.04207979215163
H           -0.69597894520123        2.55396175233474       -0.73693027217903
H           -2.09796451155527       -1.58583456373790        1.90066631895929
