26
 energy: -46.377758861196 gnorm: 0.000641867604 xtb: 6.6.1 (8d0f1dd)
N            3.88752885641828        1.00822408588968       -2.11945864157337
C            3.14010159817252        0.47364936640386       -1.42924372371410
C            2.19138391515756       -0.15423465746424       -0.59860420614184
C            2.37139448543319       -1.47607318425920       -0.29269781918102
N            1.75375341194414       -2.13404654878618        0.70134717053260
C            0.54589604910775       -2.03041499013180        1.06555584290122
C           -0.48151390519723       -1.24646590732371        0.36206192758111
C           -1.69602158440069       -1.72524530561921        0.00556505092151
N           -2.67226929205410       -1.07144054683994       -0.66743424840095
C           -2.83485568465834        0.21422305675700       -0.61359566727781
N           -2.35532823220073        1.06970594174150        0.33351611559347
C           -1.18372215351675        0.99300080887559        0.85435894929159
N           -0.91327038296860        1.66675866518179        1.98952040209774
H            0.03531561235570        1.76620740155406        2.30327633411045
H           -1.64444654952443        2.19508556302711        2.43334761397017
C           -0.08847541630464        0.15610688283138        0.29213009451778
C            1.10670007937074        0.67372229893444       -0.09397058802294
N            1.34831039805993        2.04642025616344       -0.01242344189283
H            2.11609310116120        2.36397556167204       -0.58770049210403
H            0.52789202995825        2.62781510011712       -0.10503530650126
N           -3.70255233541177        0.78387815248490       -1.49724827596821
H           -4.28892172624534        0.14513455570210       -2.00756416000317
H           -4.09659026445657        1.67260837536599       -1.23962602169736
H           -1.90547811603256       -2.77943138446967        0.14794098271851
H            0.26975883697762       -2.54376446325514        1.98211378665808
H            3.18762721826549       -2.02349867474626       -0.74686470542702
