22
 energy: -39.497079774657 gnorm: 0.000513755275 xtb: 6.6.1 (8d0f1dd)
N           -0.52825544839105       -3.63349557225947        0.92492742565725
C           -0.07554860311827       -2.60688506545316        0.67789673862689
C            0.49181664799975       -1.35395485231992        0.36880257439783
C           -0.44004307625448       -0.34321126704644       -0.08371858307129
C           -1.62057746561120       -0.70687191621049       -0.68679056730669
C           -2.69875737156894        0.15351836137585       -0.98962350006189
N           -3.06783841134214        1.22439879280478       -0.36546477923016
C           -2.40107124741400        1.84200982623159        0.61868806660112
C           -1.05939078084610        1.88419513243810        0.83905856670780
C           -0.07410217555270        1.04073560402047        0.22504718520628
N            1.11469372542661        1.52613545331716        0.06670081735828
C            2.25876377036473        0.89857183371634       -0.23640578927559
N            2.68024729883317       -0.25833385164361        0.24580215828713
C            1.84717434895852       -1.21818438107464        0.61821200575963
H            2.34755118041103       -2.06180918981756        1.08341665495163
N            3.13462015839859        1.60552916524615       -0.96959926801699
H            4.06401961845318        1.24362347809636       -1.08894112437940
H            2.92039136861623        2.55400987478125       -1.22104611222184
H           -0.66190941864639        2.63035945702799        1.51381345697437
H           -3.03914181509290        2.49502705704674        1.20554392152830
H           -3.37657367001915       -0.15936072222327       -1.77896541425911
H           -1.71408137080514       -1.73618553375451       -1.01081298793400
