27
 energy: -46.107539446787 gnorm: 0.000310911075 xtb: 6.6.1 (8d0f1dd)
N            0.35759646311661        3.44834588573947        0.77728934219777
C           -0.05627827345192        2.39553974138292        0.56259813170872
C           -0.61921123815108        1.12898492678146        0.31696575213016
C           -2.02954280723660        1.06611106556552        0.29341135489189
C           -2.80493528230358       -0.00924657797388       -0.14594749102498
C           -2.41737174963075       -1.32030159736548       -0.39372111134620
C           -1.15697150388291       -1.89290644795216       -0.14032131686414
C            0.05602970890650       -1.30343685302967        0.15436516535199
C            0.33685638142476        0.12295917251136        0.02212444276039
N            1.50204793410937        0.57611485382412       -0.37380168955174
C            2.70905736451344        0.03792194428575       -0.39777256066550
N            3.20570663102137       -0.92448152203297        0.37285551659194
C            2.41910427455416       -1.85596050502303        0.89836502360265
C            1.08318458830469       -2.12014686462093        0.70677734148297
H            0.73279609558547       -3.06578298777214        1.10404846306880
H            2.97570763823777       -2.57275600542398        1.49612963258463
N            3.58784528554023        0.62701451809861       -1.24348160942691
H            4.56127428118501        0.41539791532648       -1.11031873859529
H            3.32958974702865        1.51075472167678       -1.64681007891071
H           -1.14943623046454       -2.97769621311635       -0.15798266493812
N           -3.39757552831181       -2.19096981827564       -0.78015937523673
H           -4.28526033748936       -1.83022638692232       -1.08108395596297
H           -3.13847909107529       -3.10645142911112       -1.10178321180216
H           -3.86301050657670        0.19779004041158       -0.25966506007343
N           -2.69957747365771        2.18957610618486        0.66685839961772
H           -2.18226462771037        3.03518899406611        0.83981365549751
H           -3.68557252428585        2.26251373736531        0.49115494151015
