32
 energy: -53.485246401728 gnorm: 0.000485376806 xtb: 6.6.1 (8d0f1dd)
N           -4.22218135877554       -1.07969981583166        2.28868979536634
C           -3.49172576886609       -0.69264644629630        1.48738592993160
C           -2.60901775937364       -0.20081332503803        0.51165593725981
C           -2.89934987016877        1.00510325846599       -0.07901243385589
N           -4.05046552548021        1.67176613432193        0.23655476264123
H           -4.57168046683037        1.36676511107034        1.04209892042566
H           -4.14531488170743        2.63407020668257       -0.03654172068886
C           -2.12132513658133        1.59102597416665       -1.15253113044579
C           -0.81014827398074        1.43593428994272       -1.37944552939698
C            0.12078040013297        0.60366211791749       -0.62661661713468
C            1.34874706188907        1.08626011777242       -0.29572720829908
N            1.66621980706177        2.41166570961958       -0.57471318385911
H            2.47571377951907        2.76842836185666       -0.08946491129871
H            0.89269793782241        3.05657892374801       -0.59587260969326
C            2.40163306973644        0.33052565907794        0.36201229828899
C            3.29861452181344        1.07938709966400        1.13667250066411
N            4.02448182627423        1.68921134192941        1.79335927735084
C            2.66345560396809       -1.01892665839858        0.21129585323801
N            3.82337339178820       -1.53471021179294        0.72081908959549
H            3.90276899929074       -2.53106801682171        0.82357394065155
H            4.35846020821118       -0.96459995823476        1.35514034930705
C            1.88017468707261       -1.92481919401091       -0.56742011612336
C            0.55820406573153       -1.83705755529854       -0.85369876155933
N           -0.05744071552561       -2.82769612309382       -1.56815914677288
H           -0.98362433817078       -2.65355575506368       -1.91804215643236
H            0.51362747411947       -3.47177841870027       -2.08930867596853
C           -0.33483985085644       -0.76719246014401       -0.37627384095435
C           -1.53906597618683       -1.09750053793286        0.11998821714156
H           -1.74889318923569       -2.14588450397829        0.29767852210737
H            2.40296016230837       -2.81374437262133       -0.90048475920418
H           -0.37363711952915        1.98559314222777       -2.20807604356161
H           -2.68084669447274        2.26405172969365       -1.79146418772053
