25
 energy: -42.634306605766 gnorm: 0.000745834113 xtb: 6.6.1 (8d0f1dd)
N            4.38384126616864        0.70029400998023        0.30015479812233
C            3.33002282178564        0.28316731242450        0.10343500011212
C            2.03293314799443       -0.19607154108849       -0.14614643894887
C            0.96362748726445        0.52198450610840        0.33901204025112
N            1.13373153682469        1.55297241650674        1.19625811037156
H            2.06218406584668        1.81396480226621        1.48649475803667
H            0.36961292112246        2.18206877216314        1.37172989809732
C           -0.42910924189700        0.21729212315503       -0.04363004611993
C           -1.24701446551394        1.19185917232143       -0.52611826369551
N           -2.55359786337680        1.04432308076814       -0.92658483028992
C           -3.39793766754138        0.23733407096571       -0.41819148026594
C           -3.22771096706918       -0.68278633522938        0.68634716662024
C           -2.08300950853247       -1.30888172531369        0.98550141316162
C           -0.83512969911463       -1.16267697611560        0.23273595608298
C           -0.09754099295964       -2.24493231739401       -0.09758383187872
N            1.01721315497868       -2.30329382423893       -0.87548712727700
C            1.92182352038978       -1.40677097292184       -0.93421160934415
H            2.75840429531724       -1.62742908071138       -1.59068363798857
H           -0.47113684190372       -3.22819879646019        0.16578616372793
H           -2.06062036033696       -2.00898404530608        1.81317807327843
H           -4.11955978009451       -0.89474494835601        1.26185111844305
H           -4.39549763328445        0.29577336666900       -0.84522884112634
N           -0.79280201770952        2.49740876360445       -0.72480021537566
H            0.15809811314756        2.57933815535545       -1.05698351593172
H           -1.44360039850801        3.02622514784586       -1.28915146606223
