26
 energy: -47.187536057288 gnorm: 0.000793154712 xtb: 6.6.1 (8d0f1dd)
N           -0.12100530381182        3.66774065534342        1.30869848167057
C            0.14190673429933        2.62236945628254        0.91278878018279
C            0.45098942439339        1.32137000936468        0.46762969765634
C            1.75555576772852        0.88250560354704        0.59013928210932
C            2.34609196165876       -0.28804136256885        0.11071078192593
C            3.75210912506404       -0.32837357550931        0.19450237326289
N            4.89942096850232       -0.38566192524198        0.25543734519375
C            1.71650166082287       -1.45892916085415       -0.40028863356403
C            0.34762712924224       -1.73805333678116       -0.33983698295451
C           -0.69102606221927       -0.87337259153266       -0.04697396307643
N           -1.83919675078063       -1.33953198105742        0.40678060282280
C           -3.07108805148307       -0.89950221000060        0.34144251927842
C           -3.55783733023699       -0.00534760661042       -0.65596948690772
C           -2.71067860514477        0.87107382789978       -1.27884150552791
N           -1.50963338659537        1.22072692219649       -0.84371443832171
C           -0.60695924748019        0.59910239023673       -0.16384992867492
H           -3.05874671566156        1.46812315911218       -2.11357137105091
H           -4.61190953297735       -0.00549914444441       -0.88591292677246
N           -3.95292733209781       -1.48842654725724        1.18375461404866
H           -3.59800295828731       -2.08749308167732        1.90811842157245
H           -4.89680475726017       -1.15432272761427        1.24322302948946
H            0.06351976452853       -2.77157795492650       -0.49591910921629
N            2.52652444173110       -2.43403155674454       -0.87558771812533
H            3.52606693391967       -2.33630841093327       -0.81229671166269
H            2.14124208095326       -3.32381093424912       -1.13694226163114
H            2.44397411869175        1.58968222342093        1.04156537957065
