25
 energy: -41.871772130653 gnorm: 0.000522201347 xtb: 6.6.1 (8d0f1dd)
N           -2.39778446573557       -2.27209447458948        1.31236581526266
C           -1.86919225137561       -1.28831621769057        0.52251156277175
N           -0.56223009816394       -1.39824273023630        0.31197725352823
C            0.31317006123854       -0.50333556408886       -0.06000873982863
N            1.42591580595353       -0.91334160130556       -0.63749165231289
C            2.63120189509531       -0.40448781143311       -0.53040841494579
C            3.07229191085393        0.51129806381548        0.45559088727700
C            2.27121168154508        1.41879062859926        1.11265024749789
C            0.92195892571419        1.69397723961762        0.91175273088565
C            0.01938575173334        0.92883829788802        0.17719420418328
N           -1.09979566816211        1.44543316655091       -0.28798904660256
C           -2.24020754385042        0.85518299418835       -0.60152692370391
N           -3.05179107773544        1.58094099566035       -1.42929992124503
H           -2.78134792917901        2.53588196945921       -1.59413920404289
H           -4.03560159296571        1.37486309673385       -1.43445441695673
C           -2.71535347187680       -0.35114891423357       -0.06799633718007
H           -3.77790525593651       -0.54948144238358       -0.09763632883953
H            0.52457177184164        2.59425869413780        1.36117101128208
H            2.78288428823739        2.08398062753499        1.79926203930923
H            4.13851919107933        0.55294947559845        0.63526955475385
N            3.54587209180731       -0.88413622840616       -1.41893772853651
H            3.26303312958718       -1.66196451145005       -1.98982980008863
H            4.52496334274218       -0.76724784027164       -1.22822706880773
H           -3.38274143055945       -2.45994492288945        1.24272837033682
H           -1.79444031388551       -3.05342680220684        1.50748227600107
