24
 energy: -42.942537086210 gnorm: 0.000667620704 xtb: 6.6.1 (8d0f1dd)
N           -0.44229170875340       -3.57197989332762        0.05287242046685
C           -0.50546548745596       -2.42327428747584        0.05334921768504
C           -0.64226585575537       -1.02306681117014        0.02726386859114
C           -1.92968491703042       -0.51482821845886       -0.34151093957933
C           -2.38576311029344        0.77402078352075       -0.10046314494750
C           -1.62612455579291        1.85257413885265        0.38436789195825
N           -0.32360721941131        2.02752958174740        0.22456143944858
C            0.60609670850808        1.13426170479332       -0.00556971052628
C            1.76207905595912        1.49587882754847       -0.72470864629404
C            2.94064774200968        0.77653816078462       -0.85159530590850
N            3.45302866158101       -0.14606610096251       -0.05659511001581
C            2.76655587429790       -0.66293785911529        0.94845434104889
N            1.48726973290846       -0.84635086918716        1.03565182847541
C            0.49439404380473       -0.28361285429209        0.36703784933644
H            3.35816208931375       -1.10031967885858        1.74659053516234
H            3.62438034597365        1.08718439112584       -1.63650614785312
H            1.66038942450331        2.39751707957074       -1.31485631348896
N           -2.27030839471865        2.90170380658518        0.94484839185288
H           -3.27246520267515        2.94540914879726        0.95720305644471
H           -1.73551467124921        3.71977361124915        1.17664559841919
H           -3.44364669381813        0.95109237665159       -0.24637899412075
N           -2.80015797478286       -1.41087906542653       -0.86777097237342
H           -2.55079867292734       -2.38559119237414       -0.89425505825127
H           -3.76546893969473       -1.15991578157796       -0.98582385213022
