23
 energy: -39.209490828474 gnorm: 0.000961130290 xtb: 6.6.1 (8d0f1dd)
N           -1.00521612481044       -3.41386945273294        1.12717382628562
C           -0.41120888704992       -2.50004846559620        0.76563530679973
C            0.33336086044848       -1.37627513401659        0.35639562391123
C           -0.43207328425208       -0.26731343859171       -0.15723955174313
N           -1.50455641310583       -0.51143778485753       -0.82761217563898
C           -2.54389760430585        0.24702317084440       -1.13648870316354
N           -3.06950383423704        1.19750024940770       -0.43038441497792
C           -2.36561378207350        1.84172279168721        0.52407285217064
C           -1.01708466156042        1.91925888193753        0.69667320412424
C            0.01990850783436        1.09876902687803        0.11517161433069
C            1.29608701225842        1.55681001330502       -0.00800459657791
C            2.48741366336124        0.82017151960634       -0.26795934326503
C            2.66143161578159       -0.53682358789081       -0.03022585717441
C            1.70864550268064       -1.46519475854957        0.38220344199917
H            2.10017417970705       -2.42588922067880        0.69770588425895
H            3.67594297452588       -0.90499873279227       -0.11532752816289
N            3.57532005488164        1.55317084758925       -0.61700062853990
H            3.47965113451476        2.52625523743425       -0.84588254143434
H            4.44061475691972        1.09509646647539       -0.84132969786559
H            1.43586434568303        2.62635149650848        0.10383774724519
H           -0.65626129017280        2.63761205764738        1.42362698408400
H           -2.98843387491703        2.48604145983332        1.13595872520515
H           -3.09598140281127       -0.07622672234791       -2.01306593417108
