24
 energy: -42.956445987389 gnorm: 0.000423602878 xtb: 6.6.1 (8d0f1dd)
N           -1.12509559806253       -3.17102749990407        1.03316326555447
C           -1.12557220511136       -2.06497879532196        0.71784538219567
C           -1.16694829400771       -0.70581815751127        0.35391437233280
C           -2.44180891806626       -0.11414914398238        0.19689591954932
C           -2.70490753621987        1.11497893282742       -0.43296589445167
C           -1.83739474126113        2.12672784655613       -0.78888236428030
C           -0.49353391101041        2.28565620956650       -0.48035248448526
C            0.32093558394202        1.34235408645143        0.13111943225709
N            1.36840609811749        1.70476921333167        0.85263427335216
C            2.47439108382312        1.09158099695325        1.15652822674624
N            3.08660469620943        0.11471449860893        0.51619691237328
C            2.38124210504538       -0.64130574883889       -0.33437344488325
N            1.07792483560525       -0.86527476192194       -0.31445170230190
C            0.07439099909497       -0.11028100431860        0.06263316982223
N            3.09682853288120       -1.37020612827182       -1.21567917065726
H            4.09361710852146       -1.39533152778055       -1.09073139187312
H            2.63932395598440       -2.12416270472705       -1.69772961542166
H            3.03061797961155        1.52803231172296        1.98095315714006
H           -0.05340899388155        3.25979998990546       -0.64483471882609
H           -2.29947077901569        2.97260853811770       -1.28368944340107
H           -3.75278940624908        1.29340870458627       -0.64277496643075
N           -3.51332928553453       -0.84096972424878        0.60154967466476
H           -3.38056404144439       -1.78191055538843        0.93274491236941
H           -4.44151360127501       -0.54339904760962        0.35934947665669
