23
 energy: -39.215161372403 gnorm: 0.000715733825 xtb: 6.6.1 (8d0f1dd)
N           -1.79877567663079       -3.00688507090855       -0.64560555943393
C           -1.47624141941091       -1.92434732455638       -0.42216750670239
C           -1.11615433679158       -0.59599848888852       -0.13663262165278
C           -2.14723845317089        0.36910104946005       -0.19232075769940
C           -2.06048251016672        1.68506190454279        0.31864552554038
C           -0.91506353174792        2.32356777382640        0.72923308627667
N            0.32684698945063        2.04843764532331        0.38322828253793
C            0.82342458978215        0.95122011410802       -0.10408218247673
N            1.86776660643265        1.01498979245367       -0.91550164362929
C            2.96750883991225        0.34094068578036       -0.93145838107106
C            3.37279689892566       -0.61048320401703        0.02046014399254
C            2.48066137536524       -1.37095919959809        0.74693291648438
C            1.08257864733490       -1.36595816768079        0.67635323476638
C            0.25586093394017       -0.37909892262241        0.16233371668410
H            0.58399083161924       -2.22631776458359        1.10680991814135
H            2.90754319086486       -2.16604248417987        1.34645217156837
H            4.42234275000831       -0.86156834382402        0.06822148374837
H            3.63373579404232        0.57120654022719       -1.75676573392758
H           -1.01200689917221        3.24091448930599        1.29968478643878
H           -3.00089059233301        2.20371708068008        0.45032794544103
N           -3.36022156295680       -0.03594756351965       -0.63783992628292
H           -4.15244357263509        0.57654756345517       -0.56312707674257
H           -3.51436918615996       -1.00239483048335       -0.87225939740408
