29
 energy: -50.341084503148 gnorm: 0.000585350472 xtb: 6.6.1 (8d0f1dd)
N           -4.51320256588819       -1.11390440959091       -2.09170269143885
C           -3.69284759262018       -0.60371951667802       -1.47056990323443
C           -2.68205651628579        0.00307020618774       -0.69803093069158
C           -1.73860156940636       -0.88542592662459       -0.07417448970664
C           -0.49368084902406       -0.56438907395138        0.35220242020331
C            0.34600494881439       -1.58934782684332        0.99348764664837
N           -0.29997499650437       -2.40417394088932        1.87570872430800
H           -1.22939363555444       -2.16390429349732        2.17099815950931
H            0.23382213795386       -3.02018680192164        2.46378965771395
C            1.65388310159031       -1.80326329790805        0.69528845581950
C            2.50340426108449       -1.08400381344651       -0.20250680956452
N            3.63556789314465       -1.74193852805512       -0.58991149043551
H            4.22656935251290       -1.31109953928277       -1.28122446687107
H            3.67657872725663       -2.74128833425638       -0.50075669952631
C            2.34784961245411        0.24733660102224       -0.55574234233445
C            3.34376714115686        0.84527380773993       -1.34375842881248
N            4.16223217690745        1.32933276748045       -1.99315013007685
C            1.31233548497752        1.12363099276323       -0.08324836365023
C            0.07374589075974        0.77476544997781        0.30340797674985
C           -0.87575262569807        1.78525903867441        0.85198820217703
N           -2.01740919444996        2.07594630397830        0.34690028489073
C           -2.70090441626532        1.36668168305560       -0.56225922554428
H           -3.43404020990330        1.94717633103984       -1.10875242199462
N           -0.47908806095737        2.39746393048520        1.98932052134624
H           -1.07552933028128        3.10889303450715        2.37803559953753
H            0.49561723517403        2.40107849737938        2.23421341493079
H            1.55872729041553        2.17945770413962       -0.10855615858136
H            2.11749251762593       -2.67090174541892        1.15142833778782
H           -2.03587452529065       -1.92668281756692       -0.03642749165854
