25
 energy: -47.480375627292 gnorm: 0.000413064361 xtb: 6.6.1 (8d0f1dd)
N            5.45158005928230        0.42845010429875        0.64836500312427
C            4.30763909379135        0.37489862138942        0.54337801495453
C            2.91852287390410        0.26827011401839        0.38195865603482
C            2.05769575867016        1.11165239483173        1.07272537017195
N            0.80109594109346        1.34576779329466        0.78320731061720
C           -0.09186988583423        0.63790936330356        0.15254765502696
N           -1.11674391601175        1.22135179609231       -0.43090986028505
C           -2.35187953825417        0.79779356109001       -0.50159946253756
N           -3.16893476979377        1.45190872883393       -1.34790601349008
H           -2.80690863170549        2.25399444546418       -1.83459274865186
H           -4.16317988128713        1.30324516459346       -1.30693278940896
C           -2.91546050116288       -0.24474851293601        0.32126616203845
C           -4.30830902967571       -0.20830545099826        0.50532368490843
N           -5.44963847825852       -0.14985469867955        0.63490452074446
C           -2.21314253360559       -1.32070801940708        0.84890180215765
C           -0.88083745239984       -1.66455115542505        0.66112939989810
C            0.10381669523904       -0.83681215831682        0.13544535613894
N            1.22560746657205       -1.29346069901140       -0.37821591018299
C            2.41195015065518       -0.75213893333483       -0.49914107301446
N            3.24063863277165       -1.28927763349678       -1.41786495002093
H            2.93517220425376       -2.10099982511188       -1.92641688687677
H            4.21924243208981       -1.05702761955381       -1.40249795566923
H           -0.57594099495765       -2.66114943694741        0.94871317019474
H           -2.81903977579861       -2.04414464560469        1.38247386990673
H            2.46077920952713        1.74256344630860        1.85754540700970
