24
 energy: -38.136194520016 gnorm: 0.000718170548 xtb: 6.6.1 (8d0f1dd)
N           -2.70921607476997       -2.13192626516908        0.94217597790411
C           -1.91225158007828       -1.15514131357152        0.41203490086275
C           -0.61359188899389       -1.57680826501763       -0.01223621815691
C            0.48783247835057       -0.80367474612232       -0.23474144396913
C            1.65764358928805       -1.30580131145063       -0.88717347117434
C            2.94965805506391       -0.89146695445395       -0.74428021403009
C            3.46841416008935        0.00984606442506        0.20920425391676
C            2.70445403634153        0.80425556273632        1.02530986961129
N            1.44485708642508        1.16299700637974        0.83153933372723
C            0.50545382126534        0.62870946917273        0.12166304647120
N           -0.46606382718913        1.42659856489311       -0.32597276023093
C           -1.74699163118363        1.20013603902883       -0.35105183314415
C           -2.43540108137869        0.10642599553719        0.24704139475147
H           -3.48748577726309        0.24685735752241        0.46041825198521
N           -2.50107958344390        2.13874152791535       -0.98947400323515
H           -2.02778066198677        2.98459460925178       -1.25841813795967
H           -3.48510437745799        2.19461805706443       -0.79618858381407
H            3.17437190523388        1.31823759036657        1.85792703198968
H            4.54182147332611        0.02918618830233        0.33723719665417
H            3.68563606314966       -1.40274806024936       -1.35462480757320
H            1.46973796605538       -2.10314269517412       -1.59788146654134
H           -0.49678254140564       -2.64738762444247       -0.14184574188083
H           -3.69220436360405       -1.95329944219863        1.05040319497416
H           -2.42698430523446       -3.09171261574686        0.84925243916170
