29
 energy: -49.550435126768 gnorm: 0.000509628284 xtb: 6.6.1 (8d0f1dd)
N           -0.86025640510992       -3.41669127413585       -1.16500278088339
C           -0.94675180754206       -2.31644631964542       -0.83374358983371
C           -1.08814268883187       -0.97096448996293       -0.45809043530603
C            0.08326436769594       -0.35797298253450        0.03645788258372
N            1.01479857666314       -1.13704604727601        0.52174841817471
C            2.30603443453777       -0.94894139642454        0.76402361160168
C            3.13401472933056       -0.05065842218558        0.09677129021994
C            2.61018243484355        1.03639431158390       -0.61625469950007
N            1.41712626228266        1.57218572441656       -0.46066399155077
C            0.28307924852306        1.10226633284143        0.02539121882359
C           -0.66858585337027        2.00576170988969        0.47344394462245
C           -2.04919231896737        1.82607189234055        0.59313537850855
C           -2.80880673967302        0.76527741443871        0.09163965376056
C           -2.39558018034807       -0.42645201177533       -0.49347372280353
N           -3.35710660225006       -1.19074055449720       -1.09305478845288
H           -3.13072370674528       -2.14254285551930       -1.33109121838207
H           -4.32401113110137       -0.97582529661620       -0.92292885258437
H           -3.88282743050401        0.91357453801178        0.12248016537185
N           -2.75270432276223        2.88514502660891        1.10545594869092
H           -3.72203715577471        2.75963167028222        1.33660213911369
H           -2.25048663933887        3.59299627991692        1.61108417089132
H           -0.29635331359796        3.00167193271933        0.67891132706276
N            3.44714683281282        1.76412546225581       -1.42093312964505
H            4.27465819588370        1.31978413945579       -1.77733687495027
H            3.00669301141731        2.45502383859531       -2.00470483702021
H            4.20448968248028       -0.19142947694145        0.12565244247879
N            2.83512875027796       -1.81783340639051        1.67921526205997
H            3.82858226499860       -1.97207626983616        1.66311278298414
H            2.25732423137012       -2.60695229721688        1.91835342516451
