25
 energy: -42.656484567890 gnorm: 0.000392274975 xtb: 6.6.1 (8d0f1dd)
N            4.15790258563780        1.40393308104503        1.53339985043380
C            3.27497730120008        0.83562483303462        1.06713632037521
C            2.18593415301186        0.15503292480329        0.48643306216251
C            1.08152647565885        0.98157874380172        0.05786458036379
C           -0.17450760262109        0.55491553514472       -0.12512117058151
C           -1.27131428981730        1.42782545714724       -0.63883216250216
N           -2.29446738451395        1.74840357538722        0.06596822496452
C           -2.70004994208554        1.10418582034083        1.17467711294804
N           -2.64317465192308       -0.15597074965979        1.42608128636810
C           -1.87687590358477       -1.02807131360523        0.72674451223091
C           -0.71165188967577       -0.78499937004269        0.06976598435574
C            0.05073190988357       -1.87203404868215       -0.56540059651605
N           -0.67349073834001       -2.72248986432181       -1.34276166822105
H           -1.67497989902868       -2.72790860524610       -1.26072743577339
H           -0.23067806681622       -3.54027884585617       -1.72507095184957
C            1.39397240099726       -2.04379247095724       -0.39823894363091
C            2.30711359617630       -1.18761943639494        0.26204795391347
H            3.25088230073781       -1.64138671252510        0.54136361004269
H            1.81531498566468       -2.96690245257568       -0.77864341148891
H           -2.20458392251268       -2.05630842483553        0.84713216610942
H           -3.29365725321003        1.70809173348590        1.85150009675820
N           -1.16314043535209        1.83924463073943       -1.91750985608359
H           -0.27239866529401        1.80853238650779       -2.38111394064346
H           -1.89478168610778        2.41188384042616       -2.30346609054278
H            1.30642231721488        2.03018940643886       -0.09801933419324
