28
 energy: -55.449754290613 gnorm: 0.000834116800 xtb: 6.6.1 (8d0f1dd)
N           -5.32632081761280       -0.56762624527097       -0.67891535537741
C           -4.18249719626023       -0.49981571615319       -0.58597978032020
C           -2.79271201145876       -0.38256366762701       -0.43768417959319
C           -1.92526835967149       -1.06857245387171       -1.28349691585582
N           -0.66518759536299       -1.31994287929522       -1.04990700482975
C            0.24600996458027       -0.74058828230376       -0.31824566643249
C            0.03495214112375        0.70010402738569       -0.00893025213960
N           -1.09533167056348        1.01353129614143        0.57182172791389
C           -2.28134434436329        0.45494327556239        0.60751817055261
N           -3.08512086160717        0.80082401729996        1.63343634927630
H           -4.06445109270288        0.57424152126731        1.59208838938744
H           -2.77530067709011        1.51989087130032        2.26397919853365
C            0.99149231849769        1.66959440485996       -0.31230487424976
C            0.58651408693255        3.01101457202206       -0.41048309308622
N            0.29289441079566        4.11727228877285       -0.51902978212496
C            2.37889565589177        1.37873113554011       -0.49569855898838
N            3.03814901017495        0.35827461175320        0.01290252634161
C            2.60289567691826       -0.79894532432567        0.47906672331632
C            1.36722017120991       -1.43139896843144        0.15928741043686
C            1.29151115576980       -2.82670059190030        0.30252514449965
N            1.26638853444558       -3.96446414203135        0.46694308488702
N            3.49815553071554       -1.48648075901495        1.21457313367253
H            4.42745822681046       -1.11499216728997        1.30751188808953
H            3.31709019818345       -2.44560045281828        1.45956205819992
N            3.13767250622050        2.29341024033862       -1.12797287222536
H            2.74110751081492        3.17549167427688       -1.40505586331882
H            4.13471740660990        2.16705029586281       -1.13747308799359
H           -2.32464443039225       -1.56140677589336       -2.16277180220605
