24
 energy: -42.947810645769 gnorm: 0.000654720007 xtb: 6.6.1 (8d0f1dd)
N           -1.24841201638486       -3.47085397141888        0.99284655611933
C           -1.22198327273793       -2.35971796331956        0.70240727870172
C           -1.21098560986090       -0.98959018543573        0.37562874059921
C           -0.04324897122575       -0.50529075469774       -0.28910984069065
N            0.70741293276777       -1.33186709686604       -0.95325117329969
C            1.99460494256626       -1.31691754326986       -1.21815767698874
C            2.96846996532073       -0.65005685982915       -0.51353773720578
C            2.74577851904036        0.48794792434657        0.29784641227991
N            3.81755262064030        0.97359086833111        0.97317740662742
H            4.71332167377764        0.52826313966111        0.89198183540612
H            3.75606541781477        1.84666725961876        1.46393812766768
C            1.57158992148482        1.24429450631177        0.33558138428919
C            0.29020467350042        0.91636723871828       -0.11233858729262
N           -0.58640086799252        1.87946749218339       -0.31981834018112
C           -1.90303635314828        1.79629476553948       -0.29153895824853
N           -2.66152618198354        0.98639738983540        0.46087890855725
C           -2.29651289849224       -0.22464397666365        0.80651175891324
H           -3.01888633626366       -0.72591834575339        1.44494113270558
N           -2.58083758029649        2.74392908459771       -0.96738415710947
H           -3.57066513521664        2.82225390468052       -0.81698011505513
H           -2.07407121002603        3.47883824231929       -1.42680652764596
H            1.64273317441828        2.22071032142289        0.79912912362150
H            3.99380983956775       -0.97350956177496       -0.62856192152658
H            2.28962643883252       -2.02464833033910       -1.98501949704261
