30
 energy: -54.865941019122 gnorm: 0.000472170482 xtb: 6.6.1 (8d0f1dd)
N           -4.82244332398299       -0.52103499849150       -1.07862443531117
C           -3.77032693139517       -0.23956755265825       -0.70345782623167
C           -2.48704154564309        0.11684690584016       -0.25840484153273
C           -2.13177021823887        1.46711075709086       -0.36744652693431
N           -3.03300420501253        2.31835940013457       -0.91068951933213
H           -3.91989209941878        1.97885698679318       -1.24140902411568
H           -2.82983771506990        3.29891295925420       -0.97773725057332
C           -0.94628012238259        2.05539108096845        0.13467823656661
C            0.28515951048629        1.51278083600034        0.40246786515172
C            1.26417666033771        2.36776924744059        1.01121609743457
C            2.62135993989886        2.26729609517440        0.98723752161027
N            3.41264957989564        1.51827730183088        0.21589000344308
C            3.06055039393373        0.44274377264269       -0.43250365848550
N            3.96623657515035       -0.03420702675316       -1.31162621140193
H            4.86025285834752        0.42492474766077       -1.34877496920603
H            3.86360414233817       -0.95284914386833       -1.70884131282997
C            1.85073076073694       -0.33442092989409       -0.23767863045158
C            1.94520550710255       -1.66928398973912       -0.68104817435582
N            2.08197374413271       -2.71002554677878       -1.15225751252587
C            0.61519030056267        0.11093929081387        0.21046915171323
C           -0.34645333496650       -0.89563762926526        0.57519749698876
C            0.19947312902844       -2.02811878950073        1.21210613654201
N            0.58713165298398       -2.92811418848674        1.81521667282732
C           -1.72830261581192       -0.91445083190585        0.37788588557442
N           -2.41493287186652       -2.01498171610165        0.76201552620875
H           -1.91600561643600       -2.81938069639690        1.10426330291090
H           -3.38634888714044       -2.11165769560439        0.51944603133273
H            3.18725472719446        2.97777546873252        1.58148301881230
H            0.85079228727594        3.20028004676722        1.56670149249476
H           -1.00641444704190        3.13222371830036        0.24661393817732
