31
 energy: -54.583936045839 gnorm: 0.000945392172 xtb: 6.6.1 (8d0f1dd)
N           -0.75772655680358       -3.66930521818642        1.31516368489396
C           -0.95295177773234       -2.61038088528195        0.91130018578895
C           -1.23208370687105       -1.30800149592325        0.44079986549842
C           -2.58297783042251       -1.02865765047334        0.39086763526574
C           -3.24070187408880        0.11963429770789       -0.03899366762262
C           -4.64002856932539        0.05046582693335       -0.14438050881958
N           -5.78707336595854        0.02675692521037       -0.23743228457066
C           -2.62491780176518        1.36995815743538       -0.31512622674736
N           -3.44179227411100        2.37346021485235       -0.71922818262720
H           -4.43064338311162        2.21372269520285       -0.80815487904710
H           -3.08054693731384        3.29706336615717       -0.87374660812280
C           -1.28023348765480        1.68265894331165       -0.12977426313043
C           -0.12210555763877        0.92851539089088        0.10022243129932
C            1.02470502053934        1.70134183432881        0.37797375105881
C            2.38427465660195        1.43959685948565        0.37373821981777
N            3.20549128084044        2.44138056298225        0.78007328953720
H            4.20304512877031        2.32108229591076        0.76381010760333
H            2.82453265590172        3.30623966511504        1.11716370831175
C            3.03119751441838        0.26309079512360       -0.10657647786362
C            4.42709660197942        0.31166524515343       -0.22803775268098
N            5.57538044300979        0.34936691645733       -0.32315431043740
C            2.39978556323623       -0.94293281459603       -0.44617824391092
N            3.17097399048242       -1.93400060060431       -0.95176162621392
H            2.78703898181545       -2.85359667173413       -1.07965461676169
H            4.16924177457416       -1.81980682920179       -1.00561834089157
C            1.04220204834335       -1.26200153010248       -0.24687422645418
C           -0.07597586067496       -0.51881021190064        0.07861263191137
H            0.85083802168149       -2.32251259807573       -0.37264037482745
H            0.79915423568956        2.73090178265103        0.63715663330000
H           -1.08588683636259        2.74539056061699       -0.23763771140935
H           -3.23259827824791       -1.84703342824543        0.68528597054848
