32
 energy: -59.095129265452 gnorm: 0.000867304419 xtb: 6.6.1 (8d0f1dd)
N           -4.39796945786176       -2.43127315578410        1.80854906301949
C           -3.57199943938555       -1.82581650310855        1.28957359124880
C           -2.56792147588291       -1.06478176925197        0.64642247177732
C           -1.28210368737606       -1.41263031824838        0.89754185551734
C           -0.07158942007219       -0.83396821944951        0.36680139960834
C            0.96138779731475       -1.67033751051386        0.08891992962765
C            2.23146144450519       -1.36038644816433       -0.48632939863188
C            2.88129422198225       -2.43113347493268       -1.12967525810905
N            3.42799553402140       -3.30008585363360       -1.64781373165839
C            2.91681697917506       -0.15977074389290       -0.40559037506496
N            4.11465431074252       -0.01970134902809       -1.02338012014931
H            4.69868887477564        0.77250677533951       -0.81556904034490
H            4.53158011509144       -0.81984529104144       -1.47034224842929
C            2.47970010619066        0.95693750283742        0.40742872490363
C            3.50359185783710        1.80430910321368        0.87272003133887
N            4.33628274620664        2.50231483842540        1.25070327029989
C            1.18822435823896        1.28832406268566        0.75150477346960
N            0.95859254466118        2.31515861777254        1.59568099847656
H            0.01865789020821        2.60698227506153        1.79781162368193
H            1.72709325414130        2.83883519737920        1.98233298536000
C           -0.01955259865468        0.62625745850034        0.22667476027194
C           -1.01331991443760        1.41485709467896       -0.22647402622236
C           -2.32957091810442        1.04241989562312       -0.68535659784987
C           -2.96090792962935        1.98286815179497       -1.52121689761516
N           -3.48653153046352        2.75568270437493       -2.19089813906881
C           -3.05859390384052       -0.05789158896863       -0.29774062208322
N           -4.31390281423090       -0.25394867481817       -0.76481610437893
H           -4.88673591021543       -0.99518330727074       -0.39968265538333
H           -4.73213173874272        0.43252552613827       -1.36998171956138
H           -0.80707332113812        2.47496180686235       -0.32868120745754
H            0.77561900001161       -2.73169322046817        0.20693402721944
H           -1.13958607057596       -2.27190074909343        1.54592935768330
