22
 energy: -44.305238504804 gnorm: 0.000528416349 xtb: 6.6.1 (8d0f1dd)
N           -3.44056705902551       -1.99730914804753       -1.05950445506753
C           -2.74119858594023       -1.14192890498561       -0.75100812396802
C           -1.86874565243548       -0.09068509656873       -0.40241151313193
C           -2.19881320810057        1.22570237074021       -0.74402261530179
N           -1.74931023497688        2.32094232701487       -0.19081317522252
C           -0.66966187025032        2.56059771061370        0.50757314159492
C            0.51345808546063        1.81606745777224        0.51147410240889
C            1.72230668819770        2.42109950938306        0.91022043406794
N            2.70394855383832        2.90853408055683        1.24928737008190
C            0.53880076011631        0.45297632801661        0.13349277985284
N            1.61018622054563       -0.14059147809244       -0.30405652240107
C            1.94557129801536       -1.42319225545871       -0.34459289098051
N            1.64120678373871       -2.33677074989753        0.59174868197440
C            0.55551024617873       -2.17611833342710        1.30960459283522
N           -0.50227088278021       -1.47304952138030        0.99835702149940
C           -0.66725963922730       -0.40666016091638        0.26951226360433
H            0.45739659831102       -2.80322818397984        2.18784587532169
N            2.80536303074830       -1.79919783772065       -1.29970001366096
H            3.20947612707323       -2.71746645136079       -1.23906867846065
H            3.20834272134180       -1.10736576195299       -1.90740564339093
H           -0.67080366120508        3.52267994169245        1.00922090161854
H           -3.01705502292404        1.38301196929850       -1.43988363017423
