24
 energy: -46.985865475488 gnorm: 0.000883672816 xtb: 6.6.1 (8d0f1dd)
N           -0.37281819332180       -3.42107367884131       -1.78548613216074
C           -0.67001879204719       -2.41750863643751       -1.31250982447694
C           -1.03416508683816       -1.18046198594908       -0.74600870912136
C           -2.33231570545528       -0.70051582319250       -0.97258055372422
N           -2.99127145499506        0.23871187536803       -0.34879605290060
C           -2.46091598587190        1.08899634249291        0.54530060023894
N           -1.24316793309493        1.59427201313870        0.54842100045689
C           -0.17908177998295        1.01078809667695        0.04720177434830
N            0.81600587649513        1.71593561214654       -0.42569844345803
C            2.07974317611357        1.34578052526267       -0.59196706127297
N            2.77914153268295        0.48983147409581        0.15263052834700
C            2.16892514979900       -0.48838609984314        0.81091988830831
N            1.00360000593005       -1.04609802681624        0.49225751478027
C           -0.04432555868079       -0.47095254531960       -0.02587448060533
N            2.86901943222828       -1.09220226834650        1.79214542530717
H            2.54576678347986       -1.98444917498888        2.12395261948437
H            3.84161940050372       -0.85618955692402        1.88235543578300
N            2.77443999260410        2.02607478764418       -1.52297712512559
H            3.77192540158070        1.91484664759491       -1.54910904594186
H            2.34000261304519        2.81408274385977       -1.96906463578263
N           -3.33404175772019        1.59519524916594        1.43695761053925
H           -4.31014749839739        1.39125438735130        1.31510056234672
H           -3.04769920786036        2.37347041113182        2.00379823551256
H           -2.93566830469724       -1.24911175417032       -1.69096402008232
