25
 energy: -42.658964554918 gnorm: 0.000638272314 xtb: 6.6.1 (8d0f1dd)
N           -1.01140764885926       -3.63966779532783       -0.71525204341901
C           -1.06362671125696       -2.51270253447343       -0.49913538575988
C           -1.15359838064055       -1.12155116255149       -0.28126627008853
C           -0.02165089673439       -0.51282780398348        0.27522551325925
N            0.83963197860395       -1.29274802972362        0.91968430883868
C            2.12380703816979       -1.26382418038185        1.03801962826471
N            3.01450694678622       -0.60017065148842        0.32160232130878
C            2.70553694211786        0.56878952129809       -0.23681394317542
N            3.71798679012947        1.12053288132914       -0.94448943206818
H            3.67231858785807        2.06894742740706       -1.26883873908374
H            4.59007479858324        0.62268338753634       -0.97593928688989
C            1.53296199504008        1.34077559145963       -0.06202703646927
C            0.23611471101083        0.92223027574583        0.22354610488116
C           -0.76540614664066        1.89629023503095        0.41363890312701
C           -2.13466358072069        1.80557161750722        0.25284115184144
N           -2.88492084398518        2.89415806064759        0.58278018043347
H           -2.43649996138075        3.74786826095699        0.86238487415725
H           -3.85590329178374        2.92976266424729        0.33163247136601
C           -2.85284389409223        0.71419889230820       -0.31402638074832
C           -2.39395675224945       -0.53317215734386       -0.60557516114539
H           -3.10174002636922       -1.21276148778041       -1.06632363779768
H           -3.89026616834261        0.92076029147646       -0.54542719279707
H           -0.39377828614234        2.88060026492465        0.67927198239953
H            1.64106083829862        2.39374966500225       -0.29745423827131
H            2.54008182449930       -1.95681894532301        1.76370103213617
