31
 energy: -54.583833985740 gnorm: 0.000869905350 xtb: 6.6.1 (8d0f1dd)
N           -0.54236588330275       -3.63434554993241       -1.94417974357945
C           -0.72443891283012       -2.65980270974953       -1.36189322843901
C           -0.95203922497295       -1.46278295912831       -0.65144626653082
C           -2.26334940155262       -1.08946676148640       -0.53182498684820
C           -2.80932126622768        0.03226401077866        0.11366795184186
C           -4.20288254725516        0.03384501159243        0.29867829620329
N           -5.34149908222745        0.05454918708607        0.46425375575241
C           -2.10040975700630        1.18813575440758        0.49129725612358
C           -0.73217441655145        1.43294969765680        0.25393564961061
C            0.32849799376191        0.60827139968432       -0.06290415496942
C            0.25420788443961       -0.83959721679284       -0.11567144953168
C            1.25102634630984       -1.69641607699282        0.24903148184484
C            2.59576489345513       -1.45348957011143        0.65653775672455
C            3.32557543567872       -0.31637766596450        0.39785697376593
C            2.88896089081793        0.86489715799601       -0.23381191080087
C            1.55854085102221        1.27376453855836       -0.40991506116619
C            1.39567599721565        2.55802837974331       -0.95747450725212
N            1.30064862552052        3.61076144850452       -1.41713639600559
N            3.86532632026742        1.72317106014936       -0.62144134968419
H            3.63051452942730        2.59582570162297       -1.06170415140635
H            4.83164805448001        1.48003365796035       -0.50299614882070
H            4.37917928592496       -0.34810375573477        0.64732496900839
N            3.20881506078283       -2.48947113630980        1.28670676102966
H            4.19647688733888       -2.45553577559056        1.46529993976806
H            2.75112445236614       -3.38172018861617        1.34082145932385
H            0.98666998873234       -2.74801788113748        0.24484548806295
H           -0.46509181269912        2.47589276501453        0.38853119658783
N           -2.79861561087241        2.19526534646575        1.06886058451764
H           -3.79952370146301        2.12527765281839        1.14852807409282
H           -2.36625917432947        3.09128439659455        1.20888933816864
H           -2.99025000914753       -1.77592754098787       -0.95379870919161
