26
 energy: -47.188692214657 gnorm: 0.000853546725 xtb: 6.6.1 (8d0f1dd)
N            5.84133430512166        0.48009923369840        0.48688857514767
C            4.72459191180824        0.28840799080762        0.29508780434386
C            3.35405934225305        0.07318312034195        0.06582199069039
C            2.70300419511298       -0.93182901369659        0.78179327513831
C            1.41609468566190       -1.40882732827737        0.60384191644365
C            0.34493577672877       -0.81992313885909       -0.07935904463380
N           -0.72057871142892       -1.55761406546459       -0.33261784863960
C           -1.98294262113751       -1.22376716173855       -0.41869638989383
N           -2.80108812135465       -2.13943738095876       -0.97538378865247
H           -2.40920816288059       -3.02090329443080       -1.25783202494527
H           -3.79944703775294       -2.03773928118082       -0.90794114441068
C           -2.57403521823626       -0.04215474857750        0.13540334905110
C           -3.93870831635494       -0.10115306986349        0.44061921902572
N           -5.06286850582196       -0.15804968162223        0.68900283781766
C           -1.90987761249441        1.19411055510930        0.26450113700977
C           -0.60311986337548        1.47076158347385       -0.18960751010246
C            0.42108803423628        0.59127130302285       -0.46547702119601
N            1.48885858028477        1.03564515854832       -1.13838518333046
C            2.74162140316122        0.79550840124825       -0.99131383043899
H            3.38813563430034        1.24693094059985       -1.73820306441124
H           -0.35822426786112        2.51882790845236       -0.31017807470268
N           -2.61900344554948        2.23764611622417        0.75046823122841
H           -3.59140151270147        2.12489373115650        0.98245114870994
H           -2.21943337593845        3.15861595943130        0.76007916819050
H            1.16364856693541       -2.33392884549848        1.10541544338775
H            3.32190835268348       -1.48118610534594        1.48217810597302
