20
 energy: -39.296972877654 gnorm: 0.000491812783 xtb: 6.6.1 (8d0f1dd)
N            3.16375194916940        0.56986822122356        1.37229211245022
C            2.33357971823770        0.24855649451781        0.36417813467469
N            2.74173999316135       -0.74827100923849       -0.43520207614121
C            1.90507165258529       -1.41848536475877       -1.19081497488083
N            0.60848113533225       -1.56500223677220       -1.05514066256028
C           -0.19246712000136       -0.72420211605000       -0.44630071464349
N           -1.29666428350760       -1.05658756814131        0.17081263382132
C           -2.33362263005694       -0.24834912527039        0.36380977908154
N           -2.74164825159282        0.74839923060243       -0.43573784473909
C           -1.90485270415052        1.41853880676671       -1.19127619197708
N           -0.60828505085638        1.56506914952632       -1.05539804721961
C            0.19256061759320        0.72432927978961       -0.44633998141053
N            1.29665385880339        1.05677578182607        0.17092640608489
H           -2.36350785423216        2.05527617540608       -1.94080889181303
N           -3.16396458083997       -0.56956098110966        1.37181580248753
H           -3.01494790392390       -1.43135446989517        1.86637909284513
H           -4.05750196622174       -0.11185460308029        1.41256233220642
H            2.36385299372900       -2.05529692947211       -1.94020740576147
H            3.01465187754751        1.43171058763071        1.86674507229547
H            4.05728243992442        0.11216586989938        1.41323449869985
