29
 energy: -45.529665095793 gnorm: 0.000511292725 xtb: 6.6.1 (8d0f1dd)
N           -0.13898187945927       -3.32160392596084       -1.36120078536439
C            0.22047002857423       -2.32866010355291       -0.89533128785329
C            0.69176733081980       -1.12267250402595       -0.36003073591783
C            2.05648797921377       -1.05228439545040       -0.10263512655420
C            2.75845961508536        0.06803086386154        0.39726630082705
C            2.34945545855853        1.37762256075362        0.37332151940479
C            1.11468629649222        1.87525997268761       -0.12898592389844
C           -0.09107719423029        1.25900947961315       -0.32900614639642
C           -1.13271239924995        2.07822765870909       -0.89953094616184
C           -2.47973566926772        2.01575649466819       -0.75428478634324
C           -3.25840958650970        1.11593690544487       -0.00427224624235
C           -2.83661327775649       -0.08472761617085        0.51501007787266
N           -3.72558833450209       -0.83766932941105        1.24050882073973
H           -3.52122185369340       -1.81427406630645        1.36976438485969
H           -4.70078509528592       -0.59638270253405        1.18394359821599
C           -1.54971093985995       -0.66895367941349        0.33208707549140
C           -0.35442279746308       -0.14474509596422       -0.07598131116316
H           -1.52760936954095       -1.72834194014727        0.56676801388503
H           -4.30162553506361        1.37274084905961        0.12868033846518
H           -3.04420337020989        2.79998322388668       -1.24615702015973
H           -0.75578536513846        2.90040582693459       -1.49723592715468
H            1.12509521165066        2.94391933496958       -0.31513689550775
N            3.25529713169367        2.34209973736351        0.74416847508735
H            4.06144602211399        2.05190536509724        1.27104239232968
H            2.90475291354792        3.26265853871649        0.94590160884492
H            3.77009346509473       -0.12564510242550        0.73313353951957
N            2.79620734621429       -2.19395474184365       -0.24849579231240
H            2.37377981832421       -2.98059934040137       -0.71325358386542
H            3.79733643645736       -2.12114139507225       -0.28136522395171
