31
 energy: -48.156905787925 gnorm: 0.000595550647 xtb: 6.6.1 (8d0f1dd)
N            4.26490953765768        0.25448201029539        1.02211066549450
C            2.95300810708917        0.35907354168750        0.56036150607130
C            2.20043932139934        1.42973621027577        0.92526127118183
C            0.91680820754219        1.78395875531872        0.40885251807254
C           -0.02455690785739        0.95565403053503       -0.08838141265152
C           -1.26310369793671        1.49689095723172       -0.67300298761689
C           -2.49690474166118        1.03838222726280       -0.36027915875284
C           -2.77390311288664       -0.04607137216098        0.54852530587720
N           -2.05655114678271       -1.08965798943903        0.80084952137880
C           -0.85008750123528       -1.37116850123257        0.21970193620024
C            0.10809801162320       -0.49742458512547       -0.17718996853259
C            1.34800341823084       -0.97459259666745       -0.81936273568515
C            2.59213581240072       -0.61563162159086       -0.43614431416758
H            3.43113778704164       -1.09583950178603       -0.92819510512884
N            1.14257098531375       -1.78460676210517       -1.91664790564924
H            1.94957654079835       -2.26342492347738       -2.28509629213122
H            0.28975696796894       -2.32309828091170       -1.89925682727836
N           -0.63779983992849       -2.76445681145428        0.10750221802666
H            0.28388343836096       -3.05142253030124        0.41380057869100
H           -1.35927071330479       -3.25763733687261        0.61805363525301
N           -4.02686263314979       -0.03302285585608        1.11735191688881
H           -4.16677403023010       -0.71321205354870        1.84674054585680
H           -4.46679320019526        0.86113921525433        1.25518210463625
H           -3.36138648780809        1.54292680577070       -0.77431044229143
N           -1.09834087035013        2.57379095236015       -1.50747208417616
H           -0.17015528155204        2.73556241093088       -1.86070866582015
H           -1.85924661773227        2.81546088905180       -2.12172400320588
H            0.66655905394025        2.83702119651750        0.47544930430546
H            2.64970822124428        2.14545915606634        1.60384466243482
H            4.46727063742534        0.78919177006203        1.85266317507942
H            4.64363008537406       -0.67942304929131        1.04355711783905
