29
 energy: -55.944835238548 gnorm: 0.000932219949 xtb: 6.6.1 (8d0f1dd)
N           -5.00847865930728       -0.90848357631655       -0.11093332139673
C           -3.88376346048346       -0.68999354268840       -0.02474522368053
C           -2.50740404983413       -0.39383130121933        0.06980141243473
C           -1.70676746990824       -1.40120366955583        0.62434977134315
C           -0.33540175482632       -1.52222363970732        0.62127208009140
C            0.19852714876827       -2.68196736575196        1.22856290384760
N            0.61818638002104       -3.58377785046875        1.80089521177904
C            0.62161063652606       -0.59601794083718        0.08221083084066
C            0.38474068574282        0.83612567659061        0.18450990998748
N            1.35238067281928        1.61483300004727        0.64687463106187
C            2.63798244995334        1.63512278427580        0.48776116240070
C            3.33262027392190        0.90581502184930       -0.54517138252247
C            2.91312661529765       -0.30565662881121       -0.98030852994725
C            1.77960263165821       -1.05397981916671       -0.53384136737781
C            1.82220975918561       -2.41581530942430       -0.92020937589872
N            1.88668149079020       -3.48952138593635       -1.31908950793619
H            3.54834358053198       -0.83448445931390       -1.68090699192227
H            4.27561013034880        1.30112504402774       -0.89170929108601
N            3.35302700903732        2.42633674398987        1.30358790700756
H            4.33454611081129        2.57089531579668        1.15311464454821
H            2.87288778195534        2.96896583365754        2.00091431107047
C           -0.82790285928933        1.46146426007886       -0.12779209878566
C           -0.73406328065341        2.86445760837036       -0.26206493059971
N           -0.68147845371536        4.00512266179380       -0.38927917980061
C           -2.11509496669573        0.89697665996336       -0.34898827951672
N           -3.05017934447520        1.69464071206768       -0.90143528834778
H           -4.00367151329243        1.37746607814278       -0.97030519654598
H           -2.83689047681655        2.65691200815091       -1.10687325849528
H           -2.25026941957309       -2.24392208400313        1.03790065754542
