25
 energy: -47.471482212662 gnorm: 0.000699005098 xtb: 6.6.1 (8d0f1dd)
N           -2.07216808786153       -2.10746914086323       -2.10496438439062
C           -1.90989702410190       -1.26006295201765       -1.34682003711751
C           -1.72102067659619       -0.14796405282233       -0.49916939530731
C           -2.82410268772871        0.66429313700695       -0.27520520084815
N           -2.97715488328059        1.62133736671027        0.61546945987081
C           -2.02717491164851        2.31392201297146        1.19810605152637
C           -0.68520725482040        2.40626251906661        0.85620259960043
C            0.07345640304535        1.46105000544371        0.15803162014460
N            1.24875032122363        1.83445391160760       -0.31987315755038
C            2.31199721281862        1.11293121159178       -0.58117156295716
N            2.71652657178133        0.00808120840105        0.07024708937557
C            1.88672754839674       -0.89416452138861        0.52801479432012
N            2.42719020142045       -1.88641058458595        1.25181183224648
H            1.88312115107327       -2.69607550206095        1.49989875585507
H            3.42486774539085       -1.89499479965259        1.37697560955021
C            0.46546522010870       -0.98174156550899        0.23314957478011
C           -0.07782570596365       -2.27501962245173        0.36252108755604
N           -0.43946515222407       -3.34804818090580        0.56249507145820
C           -0.38923307492679        0.08277191760776       -0.01840581850333
N            3.18604923399119        1.60763334078310       -1.47224470200045
H            3.00762010997134        2.50346223459358       -1.88969414552396
H            4.08229612335731        1.16654269959224       -1.57297341706683
H           -0.13115570088360        3.26927846022982        1.20069759893353
H           -2.39770552452740        2.99171773319876        1.96146916657487
H           -3.73666492171571        0.41327111755319       -0.80846728612637
