27
 energy: -46.891935257883 gnorm: 0.000394425902 xtb: 6.6.1 (8d0f1dd)
N           -4.07817364988653       -1.82739457781561        2.05965801078951
C           -3.47397964927913       -1.12211213300482        1.38581749772544
C           -2.71828409065736       -0.27070035427032        0.54642230683715
C           -3.30795221455336        0.85353020101932        0.07157765106324
C           -2.73235426316370        1.79375881222915       -0.84803708491823
C           -1.42751741426983        2.03830616001615       -1.04755248484159
C           -0.29822943924843        1.40998981056247       -0.36857504450731
C            0.76559072455827        2.16232400662912        0.00037670165656
N            1.84906895299979        1.80812059773546        0.72896616301853
C            2.41416269077918        0.65207792339154        0.73092449607509
N            3.42265396175992        0.44236701532841        1.61687242411252
H            4.06533397017600       -0.31662384240362        1.46606517053529
H            3.74549770800257        1.24381736046784        2.13205470064508
C            2.12104625944946       -0.45515729688926       -0.18659249010209
C            3.20603565838035       -1.26193327102331       -0.56140793329994
N            4.10616368142766       -1.91665946080605       -0.85523163529549
C            0.86943009441253       -0.75448186057796       -0.66128685134155
N            0.68049175525005       -1.75477855645799       -1.55046020172374
H           -0.24567491218824       -1.99378890767821       -1.85577879601530
H            1.46716626655623       -2.27148340553448       -1.90667583513865
C           -0.34842695480501       -0.04742665739749       -0.21764995378873
C           -1.40709672663659       -0.77366643509758        0.18128589177883
H           -1.28977464274030       -1.84653514517407        0.28661678449886
H            0.71853860823975        3.23246179605900       -0.17107514468657
H           -1.15872067385960        2.81717214236278       -1.75222683694954
H           -3.45034761899014        2.39759778560553       -1.38864387034481
H           -4.33354561200538        1.04487165872485        0.36257126261580
