24
 energy: -42.924691449384 gnorm: 0.000419540986 xtb: 6.6.1 (8d0f1dd)
N            4.47356493875265       -0.13190130451084       -1.40350703781072
C            3.44933834608078       -0.20528388281185       -0.88829753691072
C            2.19678324509458       -0.30847960261579       -0.25288665034398
C            2.13826377800698       -1.20969287923666        0.91087690116635
N            1.15303451252661       -1.87372131340542        1.34237161819058
C           -0.08734601715192       -1.86294385671838        0.73999773975482
C           -0.71114771506584       -0.80890866104162        0.19623170543459
C           -2.07281067566648       -0.92689215136962       -0.39745780669371
N           -3.07585874795166       -0.21603885435559       -0.02072768631802
C           -2.99282979598464        0.91725770214790        0.68635922628142
N           -2.08822343269481        1.82973468819522        0.63337423615381
C           -0.86629080378029        1.68775620482027        0.04564932859753
N           -0.32875030953334        2.89930855520832       -0.32567106611122
H           -0.85860231230665        3.68949519435509        0.00621109535634
H            0.67026389005243        3.01270137351220       -0.30423215978331
C           -0.14226318497029        0.51712400312661       -0.07427550822593
C            1.18706329408545        0.51527367357435       -0.63650318743017
H            1.39729665095937        1.24021848363000       -1.41868830098506
H           -3.88070598623239        1.15663069016873        1.26133530708376
N           -2.22341821311281       -1.82891173131408       -1.38092191849436
H           -1.49608236554279       -2.48957600631398       -1.58786953942987
H           -3.11073239317862       -1.90028340919143       -1.84927201006845
H           -0.60424705756800       -2.81020606198163        0.83805533064189
H            3.07079669028382       -1.32328259957297        1.45662331934158
