19
 energy: -36.334105784978 gnorm: 0.000992118573 xtb: 6.6.1 (8d0f1dd)
N            4.77777647978435        0.13869592578277        0.04756555296796
C            3.63239774826997        0.08806436410423        0.01328571374809
C            2.22040131694361        0.02291594092533       -0.02669161557272
C            1.56745660176967        1.03825042075256       -0.74048330050151
N            0.31054692537841        1.38764746183290       -0.64287533643045
C           -0.63198150217782        0.68949691756657       -0.06744230174902
N           -1.61482424718060        1.20061350817859        0.62578045740374
C           -2.84906496626043        0.81645198974440        0.79374210832453
N           -3.57460723011267        0.05717746030575       -0.01213842169166
C           -2.96489056612124       -0.77230049734333       -0.84061665488755
N           -1.76321601129597       -1.26803232958098       -0.70293190077909
C           -0.70378108993220       -0.80305339730206       -0.10699541684947
C            0.32679148205763       -1.54120434616873        0.49037715448467
C            1.62711114915395       -1.09895384315241        0.58924305746027
H            2.32284407945662       -1.76163708160161        1.09118566382307
H            0.08354957779272       -2.52356876525959        0.87112819887136
H           -3.57010493303169       -1.21255571939830       -1.62440266565472
H           -3.37104063960675        1.26963142448911        1.62917790304927
H            2.16937008711202        1.69405538342446       -1.36015557461639
