28
 energy: -51.422079564984 gnorm: 0.000912705268 xtb: 6.6.1 (8d0f1dd)
N           -5.25283415931139        0.20579454435605        0.13754565283703
C           -4.10474381627653        0.16785088926025        0.19651689985138
C           -2.70344788121524        0.09767652510016        0.24054930805042
C           -2.00818239630163        1.01039901403435        1.05456227921430
N           -0.76905083368217        1.33607445460343        0.94508014459766
C            0.25966929644875        0.86612144543257        0.25881858208645
C            1.16985589926678        1.79613313096234       -0.26292252324964
C            0.69546122821677        3.12100287498901       -0.38797680997028
N            0.32755571520672        4.20028559580494       -0.52095473994446
C            2.50388295438795        1.58106183836444       -0.65467406610568
C            3.30026119095187        0.49685210061559       -0.42807098492424
C            2.95509235125199       -0.75002076926885        0.15369935656488
N            3.98700369755161       -1.56397509112360        0.47216945955243
H            4.93175097831277       -1.28369411361954        0.28038171754468
H            3.81676877366450       -2.48888361989901        0.82985740941008
C            1.65162106590185       -1.24162947853585        0.33265696867516
C            1.54915397598408       -2.59029220833518        0.72149119901153
N            1.49033353028701       -3.69437610085929        1.04178640879034
C            0.40521341249322       -0.57616055637452        0.11527020203589
C           -0.69712579718569       -1.33619088899263       -0.24203269933751
C           -2.06008185743633       -0.99845987418395       -0.38481088560360
N           -2.83426948989374       -1.87368384491004       -1.06259306371694
H           -3.83091455339004       -1.73698608864183       -1.09907708131304
H           -2.45349808608845       -2.74554721529647       -1.38573705994340
H           -0.47154662404826       -2.35805478879613       -0.52787004845820
H            4.34416278383797        0.59531979064289       -0.69747754812117
H            2.98150593387213        2.44080902923485       -1.10934755146799
H           -2.56406712660554        1.55623345743182        1.80934971104280
