24
 energy: -38.121305384847 gnorm: 0.000495973499 xtb: 6.6.1 (8d0f1dd)
N           -0.59109093491075       -2.50457926879785       -1.12395584928205
C           -0.81598631432438       -1.30404602785519       -0.50166757375150
C           -2.07279114824804       -0.85311856753113       -0.28026100477483
C           -2.42742007579390        0.37868975777722        0.39236964584555
N           -1.79791185460456        1.50810867636810        0.36336961797453
C           -0.58592882940826        1.68741645509569       -0.22135320624020
C            0.43252894383655        0.81135791689653       -0.32989123375198
C            1.71707813636104        1.17411593912065       -0.96756552238507
N            2.87702485580180        1.01540587773708       -0.49532231262662
C            3.20874071058354        0.35413220386682        0.64240108186306
C            2.60947082759367       -0.77415253935892        1.09224857033051
C            1.37462814612051       -1.30418538421217        0.60664105738552
C            0.38482038276514       -0.60672007588656       -0.00503422107229
H            1.18646931060052       -2.34909831347264        0.82306016323162
H            3.12333147727110       -1.36311712403160        1.84059025676403
H            4.14367505754495        0.68929734538193        1.07284676051006
H            1.65914097558372        1.60471238372435       -1.96521113563188
H           -0.41845900878374        2.71568814524052       -0.52535700945182
N           -3.60756965134831        0.36375678571999        1.08108396592242
H           -3.95404937176416        1.25690115668434        1.38796601719754
H           -4.27956976867771       -0.35861172673271        0.89293998358407
H           -2.89933647668990       -1.48342927591587       -0.58842124299032
H            0.34646712884198       -2.70309107964292       -1.42846656081153
H           -1.33588734685089       -2.90656731317551       -1.66861818233858
