27
 energy: -46.898456627129 gnorm: 0.000647540060 xtb: 6.6.1 (8d0f1dd)
N           -1.99561727325917       -3.80686117118024        1.57366797128380
C           -1.65678730798978       -2.80504026281839        1.12752422144833
C           -1.22034385450548       -1.58504044224632        0.56609761408546
C           -2.10930247826606       -0.55825387906489        0.49008291585963
C           -1.90592547847457        0.71477784076464       -0.13264520654581
C           -3.07787981745440        1.39501245213533       -0.52371311569836
N           -4.01596894379555        1.96878587888694       -0.85786524221424
C           -0.70523919923667        1.36533611610854       -0.33774242133440
N           -0.65298966374440        2.52994410197711       -1.01824574120028
H           -1.49645737909446        2.94501662469231       -1.37951634032148
H            0.20256692406676        3.05623203275067       -1.04351717565571
C            0.57426672969431        0.86900007469850        0.19099080090465
C            1.40482397791709        1.70172457191357        0.87291014907527
C            2.68428058571187        1.37574859123896        1.40168585186862
C            3.48970663930143        0.37878049588764        0.95020877226048
N            3.34048813317274       -0.30735251607401       -0.20009978528003
C            2.24174715323066       -0.59582999565758       -0.78508101136943
N            2.24724735900167       -0.96998630491780       -2.08624227149514
H            3.13973670404791       -1.06709385381847       -2.54106266985724
H            1.46617544564895       -1.48089185845340       -2.45900843475677
C            0.89330436101105       -0.50881755007089       -0.14699774609208
C            0.11757773964049       -1.58943788809488        0.01591824961557
H            0.51264709549967       -2.56364124330298       -0.24615419276020
H            4.43930872729198        0.19058733261494        1.43482137291692
H            3.05318589251035        2.00708371107889        2.19750068040300
H            1.02297270395661        2.68454710499332        1.12588124962906
H           -3.11525315168048       -0.73752170514133        0.85137847802773
