29
 energy: -48.748874633748 gnorm: 0.000708038107 xtb: 6.6.1 (8d0f1dd)
N            4.14420179166105        0.22905035984345       -1.13138870718537
C            2.87764500945070        0.40609115636940       -0.59420371510969
N            2.58470951858325       -0.53542797554532        0.34592283658489
C            1.41833490066176       -0.87695776314935        0.75234899320085
N            1.32115929850520       -1.62048197258877        1.88461537989243
H            0.48074349488152       -2.15714811139745        2.02099778636567
H            2.17613303081766       -1.94975167885563        2.30133163603107
C            0.12738884337221       -0.49130182420390        0.13409467212868
C           -0.82888422967155       -1.40614114655954       -0.18031018051612
N           -2.03575480973842       -1.15903136722248       -0.76822032725947
C           -2.67735326778985       -0.03988610284082       -0.65500542807054
N           -2.49212374019600        0.95804099667552        0.25071420211984
C           -1.33992975617567        1.35900533346474        0.66098197298837
N           -1.28227076140911        2.19943921321729        1.71317381435783
H           -0.40122897459948        2.59105007192644        1.99366109160391
H           -2.12806309403788        2.46372413235018        2.18768121266443
C           -0.04675458471892        0.95322513615867        0.06972220134742
C            0.87946417975271        1.85058646969900       -0.33751755255107
C            2.17549497866003        1.55066031394978       -0.84273727607956
H            2.66113505345579        2.31523549731286       -1.43430573382757
H            0.59202227773442        2.89642075596728       -0.35018837358238
N           -3.77364672887908        0.13541863657410       -1.45271999590552
H           -4.44455351835788        0.81803034433475       -1.14429230066462
H           -4.12578969745769       -0.69062206131494       -1.90582945750300
N           -0.59752258133634       -2.78185912230170        0.01530244169135
H            0.33593813497523       -3.07707299902027       -0.24069059291857
H           -1.30037388295039       -3.31960808712179       -0.47514625131410
H            4.32368725872158        0.69201780736223       -2.00668227753412
H            4.49851249598645       -0.71108549558247       -1.06244870025620
