26
 energy: -47.188800688886 gnorm: 0.000807657529 xtb: 6.6.1 (8d0f1dd)
N            4.48736829030844        0.50518651977070        0.55188420597399
C            3.35460057981160        0.44141683725919        0.34990954905212
C            1.97784202030948        0.38109759093707        0.09823419101673
C            1.32236758378681       -0.84627217422290        0.29720443114774
N            2.03850900580600       -1.86787438834066        0.81413073329879
H            1.64197600387207       -2.79275305145777        0.83793346817541
H            3.02402089513137       -1.75262697078855        0.98317310648478
C           -0.01564406950596       -1.13596907617055       -0.10553970564540
C           -0.36341221387979       -2.49903194177339       -0.17646506539035
N           -0.60809267610544       -3.62216707183417       -0.20938250318958
C           -1.04324898596344       -0.22737454478279       -0.39093192250928
N           -2.11615249586072       -0.64252997165546       -1.03850869541952
C           -3.37171908373533       -0.35954789766231       -0.91745687862038
C           -3.95964010038651        0.34178109787374        0.14406515050052
C           -3.28085829866513        1.28360507136087        0.89400334915482
C           -1.98338027148897        1.75537062384980        0.70969317912956
C           -0.93446894616873        1.18321175660958       -0.01146266396435
N            0.12266789297434        1.91755808177508       -0.31754059514771
C            1.37578875055044        1.56337710241040       -0.44717852738783
N            2.18367388621338        2.45925994140431       -1.04900925057524
H            3.18238067959240        2.34333625928236       -1.02182931375229
H            1.79217314089458        3.34210861649789       -1.32748241884981
H           -1.71447163643789        2.66392981629504        1.23301393439193
H           -3.86594131360265        1.81777547012835        1.63287033612737
H           -5.01813169309345        0.21008903617457        0.31299342962657
H           -4.00600507135449       -0.78499324664048       -1.68770890902516
