28
 energy: -50.641446526220 gnorm: 0.000793692683 xtb: 6.6.1 (8d0f1dd)
N           -1.47541904562225       -3.63717729436644        1.46578327274615
C           -1.61035172311187       -2.55521272149631        1.09911183116120
C           -1.78295185385654       -1.23577717078096        0.63931527044336
C           -0.61987881298463       -0.59637641877822        0.12643071261871
C           -0.59738610921203        0.87436853444104        0.10010048606795
N            0.41679102863138        1.54149178906715        0.61195129837002
C            1.69248220648802        1.26988723899297        0.65478782256935
C            2.36610766530052        0.30355067758653       -0.15882276320294
C            3.73476000393624        0.49765869501857       -0.37387197018245
N            4.85977724372919        0.67704826729143       -0.55026184885615
C            1.77343687214803       -0.89119726241015       -0.61434981501296
C            0.46793694802483       -1.32700373521074       -0.30925083551144
H            0.29498276703023       -2.38558918107466       -0.46890162925536
N            2.55365530525174       -1.75030885521485       -1.31601191196830
H            3.53558101242495       -1.55921790680223       -1.42371982402004
H            2.22187983555967       -2.67845919109760       -1.50922122459093
N            2.43901615316765        2.03561822837005        1.48013431921816
H            1.98913870869200        2.80252190982051        1.94857113000601
H            3.44233149537757        2.01449008405984        1.41719222044985
N           -1.56394597454871        1.58420600257931       -0.42073615886371
C           -2.85410345634039        1.36051846597046       -0.53812313143593
C           -3.59852641027681        0.43385173985323        0.22849609001687
C           -3.07524912352112       -0.71273911019905        0.77618563697676
H           -3.77292116937583       -1.35967076122091        1.29626394655550
H           -4.66381322017964        0.59810201753229        0.30817680752414
N           -3.50809726362246        2.16165763727914       -1.41305794849722
H           -2.99188638286991        2.90410337347065       -1.85175251830573
H           -4.51096894543965        2.20115107281817       -1.41026309982041
