33
 energy: -63.620500714429 gnorm: 0.000564270989 xtb: 6.6.1 (8d0f1dd)
N            5.11671743361420        1.64613371568594       -0.31230294064536
C            4.02886619471537        1.29871639533764       -0.18594978509671
C            2.69818503674642        0.85158193594661       -0.05098784870973
C            1.83275945583153        1.69759899070035        0.65631380551652
C            0.46225094504137        1.66478237909643        0.71289782876367
C           -0.15747996397007        2.64112735962704        1.52672640048120
N           -0.64165347527543        3.38894100942573        2.25041843720746
C           -0.45090548750519        0.72519991056666        0.09615538825254
C           -1.65703616271635        1.20695278469110       -0.37105011914126
C           -1.74678382791529        2.60397039243690       -0.57519459921856
N           -1.86330219306103        3.71302558432346       -0.85163040240604
C           -2.83404380822659        0.47205998947002       -0.77730932548419
N           -3.70693147320087        1.12877150643111       -1.57474586835582
H           -4.60654899630141        0.72623046763870       -1.76959874621382
H           -3.56169417846018        2.10047010586516       -1.79258206827082
C           -3.16340561938339       -0.78751188923030       -0.32950483238538
C           -2.39608825017241       -1.67789996514827        0.44726857012158
N           -3.05510094956276       -2.70950727512367        1.01700083612286
H           -2.54649930586891       -3.42760847705391        1.50559142278946
H           -4.04063457792841       -2.82893556090123        0.86750587978071
C           -0.99511809866547       -1.64496488716018        0.58041788373942
C           -0.41496342695665       -2.70423765627441        1.30712534022651
N            0.00455551759034       -3.53982776958310        1.97695343108112
C           -0.07407945038193       -0.67150468984799        0.08896727339241
C            1.18194544500097       -1.12784509945644       -0.32886923380786
C            1.22404356001322       -2.49520687143252       -0.69109470543038
N            1.29175698225948       -3.57184721804622       -1.08781631506063
C            2.39825335733205       -0.42076523563056       -0.57577714975741
N            3.35816505633645       -1.05972628571879       -1.27477619222893
H            4.26928280132158       -0.64044073975314       -1.36539767601718
H            3.23273899077105       -2.01887613925941       -1.55402635417890
H           -4.16424713423627       -1.12755720249033       -0.56612371352238
H            2.30713617610056        2.52925464695901        1.16493923916907
