27
 energy: -42.077882853065 gnorm: 0.000527650997 xtb: 6.6.1 (8d0f1dd)
N           -4.07763076489248       -1.01274247323229       -1.57002086542121
C           -3.12085072185763       -0.70402200345156       -1.01522823691231
C           -1.95097565201953       -0.29861234982729       -0.33030798443841
C           -0.81714493428543       -0.98330347755614       -0.59060554296942
C            0.49807841153435       -0.76993996923841        0.00084486009007
C            1.21556318009422       -1.83937749833666        0.41392562621241
C            2.53986999349591       -1.85201677847530        0.94940555451934
C            3.51240348669496       -0.95352747436547        0.68059759007475
C            3.41639990178228        0.17291501592418       -0.18954926121255
C            2.29859685398702        0.85034246705455       -0.54496837649805
N            2.37904937196857        1.92100271353461       -1.41114480531177
H            3.18355650156735        1.96114597703151       -2.01620171360846
H            1.51560014118851        2.24504805554375       -1.81501624136049
C            0.95433187986229        0.61809144434023        0.01938292175868
C            0.21440899725417        1.67697764890134        0.41417784334897
C           -1.13311556211670        1.69725726352894        0.89154181270502
C           -2.12213795963418        0.81709366781394        0.60193272378553
N           -3.37955583442641        0.94363315482523        1.15900894089942
H           -3.59627745872059        1.83107074757870        1.58272483665699
H           -4.14619599254136        0.50145023532086        0.67715718447415
H           -1.40081126810227        2.55303655963461        1.49951677739096
H            0.71247866553863        2.63894155427536        0.43154360163823
H            4.35542720935599        0.53811709787860       -0.58934200121379
H            4.50118026735610       -1.14549855402992        1.07829751158954
H            2.79338099971073       -2.71567038521414        1.54998791254618
H            0.71725504300925       -2.80186432466025        0.38311882625444
H           -0.88371375727429       -1.79803714857855       -1.30563012179809
