29
 energy: -49.527275753302 gnorm: 0.000718568645 xtb: 6.6.1 (8d0f1dd)
N           -4.85954586609251       -0.76474247385424       -0.25290532833654
C           -3.77053812196948       -0.47052151036208       -0.02452106957292
C           -2.43550276505032       -0.12260510168939        0.23852110596815
C           -2.22833142120740        0.99390235062794        1.12683972999009
N           -1.23341963726347        1.78804834135363        1.22576308008153
C           -0.09221718618441        1.73325495305624        0.46312892504760
N            0.47336862546917        3.00817780594141        0.29007959416853
H            1.47821382486601        3.03231097967116        0.40388648518670
H            0.01497628086374        3.67584851943262        0.89639954184587
C            0.49492250135353        0.63067046317161       -0.06411328625569
C            1.72167811580886        0.74429524247725       -0.88198773731560
N            1.62973553468626        1.59788880728981       -1.94478778473469
H            2.46630998345721        1.80987778794415       -2.46297359941241
H            0.93142499835329        2.32118157534169       -1.89167309995662
C            2.84150874397599        0.02829232189460       -0.62804906551303
C            2.95287064881468       -0.99683925649506        0.38559408265283
N            2.04188798338027       -1.83402435054578        0.76698561743387
C            0.74728537848932       -1.80269291307955        0.37283832803326
C           -0.02237099540859       -0.73533802648672        0.05328541928253
C           -1.43506464733729       -0.91578078244815       -0.28883105789394
N           -1.72991472627368       -1.92647990708143       -1.13218832499833
H           -2.68937227072484       -2.12467964191484       -1.36586231005897
H           -1.01236161721971       -2.57452746075334       -1.40491145294744
H            0.27835029381371       -2.77953996383606        0.45314196341226
N            4.18352606859321       -1.14640627486153        0.95841288469914
H            4.31562648580925       -1.96941198069652        1.52198602078506
H            4.99003303517386       -0.76096734515134        0.49996720666666
H            3.73273661503497        0.23311784471100       -1.20993421197556
H           -3.07047924700672        1.24155041714937        1.76829177421246
