28
 energy: -51.425757602691 gnorm: 0.000666854869 xtb: 6.6.1 (8d0f1dd)
N           -3.52917111652481       -0.19781360706677        1.62392670847107
C           -2.69591789821281        0.32443036039674        1.03151461655729
C           -1.63862495058103        1.04062603513172        0.41750492561261
C           -1.79755703542550        2.44197394206911        0.48823475474134
C           -1.06124588382214        3.39912516860465       -0.14720272895583
C            0.09798797312043        3.18055011830600       -0.91876689265607
C            0.88662605962127        2.07382607271560       -0.96491581685112
C            0.74312636701217        0.79848267958313       -0.32391934775671
C            1.90544980143895        0.09146776801702       -0.05142648621311
C            3.14476111535317        0.73393304939615       -0.21839841739158
N            4.18954109545541        1.20387331313754       -0.32770075566171
C            1.99818046770295       -1.23801041933378        0.53199423936690
N            1.19799113944032       -2.23964759878477        0.31234997076153
C            0.01895033087618       -2.19866730146573       -0.32608535814697
N           -0.36238626598246       -3.38475770027185       -0.83630938486698
H            0.21526156573509       -4.18702799448658       -0.65644136550688
H           -1.29303115361358       -3.50621976163534       -1.19948502795068
C           -0.86180001823867       -1.10564370332100       -0.38205114272206
C           -2.14905485256913       -1.38201975630030       -0.87931817330619
N           -3.15070944938323       -1.66227718171666       -1.37168537908843
C           -0.57872317265330        0.26375529208117       -0.06909210103662
N            3.06560477368736       -1.48753268238209        1.30789022326865
H            3.19529415021604       -2.42138555436876        1.65780786467356
H            3.79768536994897       -0.80609594905045        1.41508464010650
H            1.79109778817986        2.15582648710687       -1.55721336797790
H            0.44454590739799        4.03200512129391       -1.49066590719767
H           -1.40666838189143        4.42102740103981       -0.07789710606726
H           -2.66797815628824        2.76819341230467        1.04497510729435
