26
 energy: -47.972465951711 gnorm: 0.000586284745 xtb: 6.6.1 (8d0f1dd)
N           -5.06503954928045       -1.55552508314809        0.52352230281357
C           -3.96940217368767       -1.24324502042639        0.38933191337242
C           -2.61885723601241       -0.85291754127147        0.23518051053820
C           -1.65393747863011       -1.73618208766591        0.69184262845043
C           -0.26979035605740       -1.65378283710961        0.54577012052046
C            0.50148969622562       -0.55078597900147        0.22591187464485
C           -0.01165830724532        0.81380030412549        0.19471632006589
N            0.58543679530506        1.81301165771321        0.72832763725943
C            1.82123941738575        1.99023088604068        1.17653220307410
C            2.93720538759585        1.39632828189746        0.66619911332649
C            2.93944004476986        0.19736873127182       -0.10414133170752
C            1.86978354491571       -0.71337292627318       -0.17483417968616
C            2.15660225883889       -1.95711953319248       -0.77158759352840
N            2.42445159164703       -2.96781213879334       -1.25081058215634
N            4.11261842280873       -0.15045113610201       -0.67476672220685
H            4.92080187048770        0.43593492697941       -0.56789662129263
H            4.21283136333720       -1.03768015013652       -1.13923221263128
H            3.90325590429464        1.83149551861894        0.88024472483358
H            1.91319661289013        2.79420200372210        1.89555879658580
C           -1.24828968557334        1.08432662719483       -0.52527503021546
C           -1.22824854800769        2.27153424256475       -1.28993578976396
N           -1.19623948770482        3.22319372365345       -1.92976982641266
C           -2.40146735733933        0.35647559136133       -0.46940140987166
H           -3.26332747569157        0.76642105086127       -0.98441626970577
H            0.27358573619319       -2.57162101946899        0.73474406379471
H           -2.02769939456478       -2.65610745750970        1.12559909539789
