24
 energy: -38.134274715802 gnorm: 0.000417425379 xtb: 6.6.1 (8d0f1dd)
N           -3.50208720375163       -1.74054372364619       -0.59125977962229
C           -2.54044844833879       -0.83625514999684       -0.22585608654953
C           -3.01753672466368        0.35342975987996        0.38560566193800
C           -2.30723817444280        1.48273006979330        0.68094005234080
C           -0.98699426073132        1.80110079920334        0.35357904864283
C            0.00400755095015        0.99516094523996       -0.17662591912956
N            1.03997768811634        1.63288886713523       -0.75191818155175
C            2.29152423124230        1.34502583611505       -0.81634496316893
N            3.00911450252537        0.43560085736041       -0.16694898134013
C            2.45311609888457       -0.70329918575325        0.23484109304955
C            1.14146560498620       -1.17692639412297        0.01155505554989
C           -0.03192594853063       -0.46051563399375       -0.20792255605406
C           -1.22167999494496       -1.18994776621770       -0.42976541641394
H           -1.06599380784794       -2.21466089743095       -0.75346039569561
H            1.01692228522708       -2.24622257627374        0.14560276022856
N            3.32305610180135       -1.54722914096315        0.84854149348583
H            4.28902042016503       -1.27007154007074        0.86989835562524
H            3.09030327176735       -2.51491322592577        0.97989092445937
H            2.88304242104060        2.00712992168721       -1.44606640246436
H           -0.69739564029010        2.83657006591394        0.48002437765556
H           -2.86752349732921        2.28169306650830        1.15238601022960
H           -4.07343739763249        0.35544833282323        0.62697418351707
H           -3.22273664541306       -2.67296136951655       -0.84149451768314
H           -4.43671176588984       -1.62311408964824       -0.24199208514895
