30
 energy: -54.868991734596 gnorm: 0.000701958844 xtb: 6.6.1 (8d0f1dd)
N           -3.31772341498001       -2.82638435483460        0.91869569784116
C           -2.25925993635905       -2.43064597754423        0.71219815373990
C           -0.95004047489147       -1.95986314209097        0.47830520824499
C            0.09502469709439       -2.81902637550275        0.85557028823950
C            1.42097647586256       -2.75249658968728        0.53399824783040
C            2.09206455567030       -1.74740570844058       -0.20461954639671
C            1.61036383159542       -0.44987990381987       -0.43850600995645
C            2.47210065418713        0.41937735299941       -1.13552120572161
N            3.16873939985376        1.06629708127817       -1.78429127849506
C            0.35358432563604        0.11481483727401       -0.05580698950206
C            0.30894117901920        1.45687044022005        0.32014174481792
C            1.53686842215469        2.03091479994987        0.71036031298167
N            2.49089789971865        2.52905566064485        1.11801021816809
C           -0.83376365708834        2.32606185015480        0.48216550460202
C           -2.06211194414734        2.13540010397939       -0.11421567939957
C           -2.42217545265801        0.99398908467690       -0.86734461268179
N           -1.95094637797992       -0.21348884754370       -0.68411924642240
C           -0.86979633036799       -0.67507166517047       -0.09088782411171
N           -3.39951165818438        1.10538929700823       -1.79612301366962
H           -3.75450882401671        0.25861002243187       -2.20565659292236
H           -3.96262002862527        1.93518165407376       -1.83954407487754
H           -2.77413967917085        2.94793826791102       -0.06807773607497
N           -0.63062010604771        3.45748970821127        1.20230852612823
H           -1.33724285759499        4.17134303595989        1.20852056847745
H            0.29951448481488        3.70611735128854        1.49486257212717
N            3.33112430427137       -2.05495008636973       -0.65568702834342
H            3.89479217876879       -1.35114794765147       -1.10273300836584
H            3.75620163188184       -2.92893353822073       -0.40443090261001
H            2.03716117976295       -3.59382251372426        0.82459651136330
H           -0.22288502848012       -3.70181959626043        1.39804472539005
