24
 energy: -42.965919315856 gnorm: 0.000219677317 xtb: 6.6.1 (8d0f1dd)
N           -5.39372008681878       -0.00079725307654       -0.00093110600315
C           -4.24491044936999       -0.00043943325477       -0.00043137873258
C           -2.83340369580202       -0.00004723763519        0.00004068208204
C           -2.21925013971150       -0.97197233891443        0.80441703582547
C           -0.89257971382520       -1.31415564514372        0.86987353145880
C            0.19315345870574       -0.70084336286387        0.21585717394573
N            1.25684787119466       -1.43578647158445       -0.02671953979412
C            2.48670439016981       -1.08488124257201       -0.37430120517222
N            3.16194776933137        0.00027989936322        0.00064257437985
C            2.48649960493721        1.08535868527340        0.37543961856598
N            1.25670049302197        1.43613242468400        0.02751244455062
C            0.19314752392400        0.70106638137638       -0.21538583450918
C           -0.89254639717174        1.31430914896284       -0.86946403028988
C           -2.21920232724374        0.97200515874790       -0.80417613469183
H           -2.90195010948577        1.58906861317803       -1.37780692827388
H           -0.63575863107841        2.20957059602930       -1.42070774440571
N            3.18723463804198        2.01067710789635        1.06138034057384
H            2.78798485277987        2.92321921808340        1.18961280262754
H            4.17670613433541        1.87444666225348        1.16485634834572
N            3.18767683995424       -2.01011669419889       -1.06011436912391
H            2.78854039454689       -2.92270506884816       -1.18845712087804
H            4.17715925405820       -1.87379536632959       -1.16335140363446
H           -0.63579478887094       -2.20936410609552        1.42127059212540
H           -2.90204619882253       -1.58943661343170        1.37729582412745
