31
 energy: -54.582283724744 gnorm: 0.000839461648 xtb: 6.6.1 (8d0f1dd)
N            5.05278965424205        1.41766817627501        1.10098595444934
C            3.96489716867630        1.17346561596301        0.81717632392127
C            2.64011210108441        0.85284842266532        0.47011556476818
C            1.66482695165809        1.78152907307911        0.77788649475370
C            0.30769636383521        1.76723808472281        0.48598252666704
C           -0.53253806172924        0.72790020472776        0.09482712100916
C           -0.10924139078503       -0.65813727038530        0.05337327445018
C           -0.90518763468852       -1.72759537956785        0.37417956702423
C           -2.29274852089514       -1.81742690433324        0.66045433391210
C           -3.25585511554356       -0.87737658503326        0.35086931756996
C           -3.07096126463243        0.39032763030984       -0.22103841724402
C           -1.85773167640132        1.10407620635756       -0.29356778186486
C           -1.97705857350165        2.41852104500585       -0.78207769261691
N           -2.12356099612915        3.47921602911282       -1.20733992052162
N           -4.18844436743846        1.01187723526747       -0.67268731395367
H           -5.08822849537881        0.58473505699752       -0.55129885572085
H           -4.14019430799234        1.95490144956956       -1.01871835888868
H           -4.28616102781683       -1.17227080543686        0.50963685102976
N           -2.69879228057182       -2.98337856763114        1.22695337161381
H           -2.05251198317750       -3.74704510376996        1.31530326706782
H           -3.67882465652169       -3.18345091503557        1.31787370946561
H           -0.39631397835817       -2.68359116679430        0.42534377572073
C            1.21829540024822       -0.99958330641133       -0.43107536319302
C            1.26013515141053       -2.21217115923408       -1.14280825152277
N            1.32366540023238       -3.19961838925241       -1.73278250235086
C            2.44407775973628       -0.36399022384304       -0.26596130848932
N            3.55492780194873       -0.93007395903486       -0.79436437997174
H            4.45765903854905       -0.52605270728521       -0.61288094752433
H            3.49694516924291       -1.81478562992598       -1.26893309440151
H           -0.18934038025456        2.71580829121411        0.64738390105250
H            2.02616600975025        2.68358802250310        1.25820251148461
