22
 energy: -38.715129087356 gnorm: 0.000418513168 xtb: 6.6.1 (8d0f1dd)
N           -3.39076053150229       -0.63405729028796        1.39469263635913
C           -2.49995935481822       -0.22412240510677        0.45336999803924
N           -1.43599702304851       -0.98818587253634        0.29914774652672
C           -0.26270578476489       -0.73162001338441       -0.21845431023016
C            0.56026213214391       -1.70376769443212       -0.79028153119007
C            1.92929917080088       -1.55344711384673       -0.97119063496426
N            2.77060327071146       -0.72303827087283       -0.39776047779286
C            2.41392765124135        0.30444228072879        0.38539628652360
N            1.33817185613377        1.06305619326107        0.29756758244012
C            0.20282208845265        0.68680866952823       -0.25191890887242
N           -0.56089243092644        1.53149163368227       -0.88112746097345
C           -1.85807727887541        1.52782348969797       -1.11243097959691
C           -2.82411971810624        0.86666448353796       -0.38809285448101
H           -3.85868683519467        1.16505355431471       -0.47351760575852
H           -2.16029273163948        2.22341852696070       -1.88854039279436
N            3.35386035663549        0.69387784199343        1.27461975423532
H            4.27267159050094        0.29672682957201        1.18701810134775
H            3.23820266595808        1.58370144099881        1.72672012304854
H            2.43141251388626       -2.29872110416830       -1.58285209000134
H            0.09516379558090       -2.62060890465782       -1.12578395465006
H           -3.23240770397498       -1.52461635806988        1.83374351906924
H           -4.32824194209556       -0.27451052091257        1.37323465751511
