34
 energy: -56.924092739352 gnorm: 0.000885925290 xtb: 6.6.1 (8d0f1dd)
N           -3.29596219853951       -2.74261490937731       -1.29407879424256
C           -2.51835358789506       -2.01454649788508       -0.85567520993251
C           -1.55928267700200       -1.14165149334903       -0.31801124884462
C           -2.07125382569876        0.01082291588555        0.39951355108555
N           -3.29800577304492       -0.15422782237097        0.97912299212810
H           -3.85767528880801       -0.94291097256033        0.70078967541423
H           -3.78518482219162        0.66488035932426        1.30465772889367
C           -1.41638606850996        1.21764588851365        0.50389219360306
C           -2.08259894070913        2.26272438359571        1.16034681420269
N           -2.62786926809283        3.12985331383498        1.68915808502429
C           -0.14035889358693        1.56346127494953       -0.11173477882301
N           -0.03287440196160        2.88617555139027       -0.57155076884604
H           -0.71358530325228        3.50871031124598       -0.15724177838951
H            0.90350431179951        3.26237504742924       -0.50782561409124
C            0.87677480247877        0.69224599939814       -0.28120893024303
C            2.09417528428776        1.06648377507020       -1.02967155685925
N            1.88195720411770        1.47836420850588       -2.32037430011953
H            0.97766865194350        1.86670724388053       -2.53256487017264
H            2.66340493721397        1.86226965131945       -2.82626706605241
C            3.33323683774824        0.97674040688990       -0.48994308631958
C            3.64833129056290        0.40213119737216        0.77700510463524
C            2.96937361692302       -0.56260356294570        1.43270251914687
C            1.79667413547865       -1.25979133411068        0.96364135891187
N            1.70247786458528       -2.59506136513348        1.36403344552769
H            0.76532391163726       -2.96792561917123        1.41690349307885
H            2.25563104887253       -2.81791549206894        2.17807631016554
C            0.85072398039832       -0.70550475660905        0.15947493084134
C           -0.23173942644003       -1.49623394154329       -0.43028418093891
N            0.13549287657525       -2.60666096703695       -1.10550079407227
H           -0.54992095132803       -3.17824369927906       -1.57150046084148
H            1.10225948575544       -2.87844274800689       -1.11506733796907
H            3.39694930269660       -0.94808819521442        2.35058300481560
H            4.58334381172436        0.73293454593392        1.21302774448204
H            4.16535861036212        1.38665769992087       -1.04949334479862
