25
 energy: -47.471397027479 gnorm: 0.000447796056 xtb: 6.6.1 (8d0f1dd)
N           -3.39582258432063       -2.31388593181704       -0.44364714740576
C           -2.66248646436041       -1.45617430147834       -0.21879537670381
C           -1.81858677962453       -0.36012821419484        0.03277210540092
C           -0.50768573988713       -0.62978759993230        0.44409183885087
C           -0.13369750817200       -1.93489928428609        0.83364131712946
C            1.13824310769254       -2.45713766228937        0.82628181094144
N            2.22033159111054       -2.03289421450244        0.19441558756820
C            2.44606138613774       -0.84273238776123       -0.31343813925437
N            3.50961292394345       -0.75491754041837       -1.13509699568904
H            4.07613496151469       -1.57631370277764       -1.26153407086151
H            3.86014084307604        0.14271235440497       -1.42458124536808
C            1.75987885189707        0.37480722052044        0.02549039667446
C            2.47711138719676        1.57192212174461       -0.15796835331985
N            3.10378851517126        2.51466014819036       -0.35701471374765
C            0.45302906522452        0.47432993641862        0.49522684015697
N            0.07790821129741        1.61268467232252        1.07933714492153
C           -1.05639349388280        2.22079480459964        1.09229248228486
N           -2.08020423355174        2.08147791881856        0.26149483101419
C           -2.37787169751810        0.93094136379762       -0.30589792466439
N           -3.38606686546692        0.95892523492303       -1.19420690039436
H           -3.85202411241307        1.83737422455068       -1.34659685700567
H           -3.80308965352261        0.10667037827522       -1.52965896252415
H           -1.14692781441677        3.03632299964656        1.80305941842638
H            1.28157927227899       -3.43256453960392        1.28034863489720
H           -0.93482262630359       -2.59054059235169        1.15008933897271
