28
 energy: -51.412927485639 gnorm: 0.000631106409 xtb: 6.6.1 (8d0f1dd)
N            5.10218103539597        0.29683336563742        0.75544770621791
C            3.97418778479887        0.27705872394567        0.53636195699983
C            2.59216251493771        0.28618682277757        0.25640462286498
C            1.86384279855568       -0.78735205268977        0.68533403941721
C            0.50680756884381       -1.08665018665708        0.42963191930634
C            0.14166791082471       -2.39931906203978        0.82379552423587
N           -0.11521267224657       -3.43309827270149        1.24991352250642
C           -0.51371241283811       -0.26981519243059       -0.05142427213749
C           -0.42878466384610        1.17755671573942       -0.12627737032240
C           -1.50580970918710        1.99615626256421        0.14388686619506
C           -2.83710839112905        1.63745622431874        0.48977300583848
N           -3.51827221121346        0.58308901972240        0.07633268982613
C           -3.00070614116855       -0.45489585925258       -0.54832422251564
C           -1.69654504153791       -0.91708678568525       -0.56053130745025
C           -1.48762582623713       -2.14363349352689       -1.23044104087757
N           -1.34385581590973       -3.09086297273202       -1.86325135182537
H           -3.74442724761338       -1.08093309904392       -1.03227486325857
N           -3.56042524359402        2.52507241619446        1.20079332643775
H           -4.51578034542802        2.29683139808250        1.41360593224861
H           -3.16364498442267        3.38541959787088        1.53122988515788
H           -1.29236587236321        3.05729139353081        0.19453642151486
C            0.77785115038448        1.81954965805535       -0.54260879715241
C            2.09107194175827        1.43937099297109       -0.46942169559401
N            3.03723078375834        2.23127566352001       -1.03399482989117
H            2.77553788490515        3.08490839321906       -1.49263915176760
H            4.01341382082857        2.02797078258315       -0.90739783972699
H            0.61279459152627        2.79100206075474       -0.99658922484141
H            2.40987266882044       -1.56073237623400        1.21454545599337
