28
 energy: -51.424034279411 gnorm: 0.000825788028 xtb: 6.6.1 (8d0f1dd)
N           -5.69544832108780       -0.67593743221654       -0.01038281869929
C           -4.55105333124668       -0.59702293408176       -0.09572487209227
C           -3.15380555882897       -0.48788422542857       -0.17174689547302
C           -2.45328399666287       -1.40852902748570       -0.96980737763938
N           -1.20362435024227       -1.70684099429849       -0.88598422382008
C           -0.16259776487089       -1.17827085548195       -0.26003183314190
C            0.79622821967855       -2.06959540840378        0.22160537707621
C            2.10545975212929       -1.82081817235282        0.58212339707331
C            2.88163439866569       -0.69206999374399        0.35006682341034
C            4.24267206674428       -0.79575682685872        0.69947896474548
N            5.35437452587397       -0.86352335153772        0.98576153312742
C            2.47963410715342        0.54352151293630       -0.24699531822251
N            3.46688194404328        1.38811644145645       -0.61364151833335
H            3.24629999579593        2.30512611122413       -0.96483157799550
H            4.42682322865556        1.15441482788094       -0.42198993265705
C            1.15145175793415        0.97344824572897       -0.39590768242355
C            0.98846914274813        2.31181414669343       -0.80270684025120
N            0.87383442017096        3.40680024372699       -1.13898425232065
C           -0.06586926106151        0.27034140068043       -0.13946511695642
C           -1.17866935889946        1.00755161664232        0.23853500051153
C           -2.52787706023348        0.64163849580629        0.41373940187292
N           -3.31341355897553        1.51107383083569        1.08531913522978
H           -4.30593545794619        1.35201355896583        1.13987731322425
H           -2.95044784640977        2.40089750664995        1.37917919977483
H           -0.97122499196890        2.03712388357469        0.50963542536819
H            2.64108572726710       -2.65465697138595        1.02112875840252
H            0.45584604127424       -3.09369145263265        0.29706176978318
H           -3.01946088881920       -1.99867245098571       -1.68353193122357
