27
 energy: -47.685765124745 gnorm: 0.000945424134 xtb: 6.6.1 (8d0f1dd)
N           -5.24801721956122       -0.32255859647840        1.42963129122364
C           -4.25078947747372       -0.16276331356608        0.88863875915604
C           -3.02070790761898        0.05288162169199        0.21468528071669
C           -1.90622484181832       -0.49019919845817        0.74718246316957
C           -0.56693921408841       -0.43391051664663        0.16319990040667
C            0.17838594343016       -1.55263883383453        0.07834821677895
C            1.52931669892808       -1.65938027902662       -0.41028352277783
C            1.90546651146110       -2.93490758695310       -0.89136227850886
N            2.19791636195316       -3.97282118346680       -1.28207849956744
C            2.48543179808562       -0.69158617729606       -0.35918234273896
C            2.33717599134796        0.61619612886070        0.19709963253399
C            3.53205540065481        1.24826195866271        0.60492449456123
N            4.48850752729133        1.78375775245312        0.94753815985549
C            1.16798857538429        1.33316928994926        0.34387122414059
N            1.15958791614672        2.52461811548551        0.98049433902470
H            1.99656770173459        2.86973934873462        1.42111353869802
H            0.31685383836447        3.06860986010656        1.03176539650280
C           -0.12422473299011        0.90653364890554       -0.22407452786055
C           -0.83190376462845        1.77206138855058       -0.97860917724565
C           -2.14195768667610        1.57710867042267       -1.53445143385267
C           -3.12064702423664        0.81838406521869       -1.01341896062279
H           -4.09782326753774        0.82349642806560       -1.47727858316983
H           -2.36757315111264        2.17108333105228       -2.41021044918255
H           -0.35569780054950        2.70746564483239       -1.24817381224867
H            3.48901669448421       -0.95453945032563       -0.67081898711323
H           -0.28853843092563       -2.49095337933621        0.35244933932865
H           -1.99834010644882       -1.05370438190491        1.66905761159080
