30
 energy: -54.068506553196 gnorm: 0.000594457261 xtb: 6.6.1 (8d0f1dd)
N           -4.04821746590753       -2.63008809666294       -1.69277034244276
C           -3.42349758709715       -1.81735452062625       -1.17416062772681
C           -2.64338378464952       -0.83582260209152       -0.53197084799699
C           -1.34063602718401       -1.25028061011736       -0.08162030018699
C           -0.28715511215523       -0.43481213641565        0.16340625032349
C            0.97511380444039       -1.00488627937179        0.65681342031032
N            0.88093295635711       -1.91222825870213        1.65166320345473
H            1.70679174035502       -2.37174826181817        1.99914797646407
H           -0.02227990825881       -2.23261586530450        1.95278601469123
C            2.19587733664944       -0.65310532016505        0.13163207752431
C            3.34467985050017       -1.31874305596325        0.58376748544580
N            4.29413120385952       -1.85894943543974        0.94813228045542
C            2.39852833020740        0.33064809538705       -0.93586717750700
N            1.73731482833099        1.41814780744913       -1.13531975302312
C            0.63722385686448        1.82085923231478       -0.43470481965303
N            0.53671683026285        3.21050554245733       -0.35533712671124
H           -0.40366907483950        3.57500708883834       -0.41344318055113
H            1.16731606128944        3.66095601694983       -1.00354746179258
C           -0.32679055400155        1.01949065814842        0.08502321329969
C           -1.50783405723946        1.57028210774940        0.80277829014401
N           -2.73324475452555        1.35869498084418        0.47998428205933
C           -3.19129568370282        0.40664904426083       -0.34433518366884
H           -4.16889595183876        0.62212827322602       -0.75902282403047
N           -1.23291372059284        2.32206247726409        1.88820228635192
H           -1.99776172581811        2.71416230946078        2.41134093501452
H           -0.31252126923083        2.71143879761684        1.99536964021791
N            3.43392423150794        0.07874385805989       -1.77404700972033
H            3.69009283411066        0.80083793000980       -2.42450470157823
H            4.10959732214530       -0.62838608690785       -1.54189536285421
H           -1.18767436763694       -2.32231227554643       -0.02693271531199
