27
 energy: -50.920942544406 gnorm: 0.000805345234 xtb: 6.6.1 (8d0f1dd)
N           -2.02384061953538       -2.39321289162269       -1.60035787332738
C           -1.74590181180525       -1.47008282789357       -0.97209160856092
C           -1.46992230543446       -0.27565286887399       -0.28320087195522
C           -2.54025660003115        0.66921974051798       -0.22095089241042
N           -2.66980635159140        1.65869502928274        0.65752262886880
C           -1.68751268909109        2.10940951222301        1.40563629723775
N           -0.41233839117804        2.11010036869126        1.16037389869646
C            0.27614951457457        1.34368255527489        0.33717832507726
N            1.31458394448758        1.83645666445920       -0.27752560614489
C            2.41636559448505        1.22887464098895       -0.68180465980509
C            2.92504657058249        0.02316198189655       -0.16869915182265
C            2.18921286023606       -1.00295889138227        0.40775918035876
N            2.86221735645857       -2.06531764385380        0.91558647033645
H            3.85571936761035       -2.13259230367638        0.78365935285580
H            2.35692564584144       -2.89730845171120        1.17142226267079
C            0.75755441785633       -1.09598860186782        0.39660959196537
C            0.22361046005145       -2.36396714596254        0.69754072357824
N           -0.15227098659048       -3.40522981635591        1.01132884845318
C           -0.14821605677439       -0.05931215758251        0.16136671804568
H            3.98638946046691       -0.15073219175288       -0.29150215273966
N            3.15292089871694        1.92126811535450       -1.58286672231302
H            4.09968910767768        1.65107643580004       -1.77775922441957
H            2.85681049988488        2.85466107752646       -1.80996748637606
H           -1.99659266296438        2.67006980105521        2.28221355676031
N           -3.60728042367847        0.48376548147705       -1.02457521345625
H           -4.41725903801917        1.05587689517891       -0.85823589981736
H           -3.69448383133679       -0.35884382099020       -1.56799947225633
