30
 energy: -54.085554060732 gnorm: 0.000749426296 xtb: 6.6.1 (8d0f1dd)
N           -5.20411887759026        0.28634952600856       -0.53276330749525
C           -4.06670635698327        0.21435569500477       -0.35462603521057
C           -2.68824030677701        0.14863828864719       -0.13740715032535
C           -2.10032579141927        1.16630148014195        0.68673290637833
N           -0.86171547300246        1.55327656705034        0.66499745214261
C            0.24576564586942        1.02217111546143        0.14768467417034
C            1.20303864128641        1.92028432440320       -0.28334535842670
C            2.54958431081629        1.67317631751251       -0.61567762065551
N            3.32405238190675        0.68374941878100       -0.20952621293097
C            2.94574252530457       -0.43137629499599        0.40211795103475
N            3.97034139014824       -1.09825450207750        0.98796701473404
H            3.83781756982052       -2.04021863433006        1.31423921192228
H            4.90027098010433       -0.75573665201350        0.82424564814382
C            1.66617953936120       -1.03281230638287        0.41203140588388
C            1.63708461566063       -2.38638125292845        0.77630974431323
N            1.64994774154364       -3.49854338341082        1.08080738623886
C            0.41832495926727       -0.43079426950376        0.07463007260849
C           -0.61993616602030       -1.25269748918547       -0.32150371919343
C           -1.97472692587830       -0.97051920917655       -0.59344181851081
N           -2.65782133905520       -1.91123139288469       -1.29568636550897
H           -2.22858596555353       -2.79982030731560       -1.48260605850395
H           -3.65689330972839       -1.83317845422131       -1.38497528244110
H           -0.34157574739587       -2.28313174543678       -0.51445080399264
N            3.19660041867329        2.61067820639176       -1.35024338158098
H            2.74960570130503        3.47958152123239       -1.57713347908368
H            4.19043414231540        2.52040414233675       -1.46441871321595
H            0.86370183406798        2.94381463153086       -0.37573500115148
N           -2.92424171426693        1.84384084912340        1.52311272575665
H           -2.55487209613030        2.64781497960891        1.99925947681393
H           -3.92023249815116        1.73936666903065        1.43473981288406
