30
 energy: -58.902703434483 gnorm: 0.000910556569 xtb: 6.6.1 (8d0f1dd)
N            4.91498386631850        1.29403206236656        0.37279107660335
C            3.82847615874539        0.94652754458299        0.21300949643543
C            2.50568344382975        0.53325543403173        0.00230656146107
C            2.10792707124355       -0.70685140805529        0.52614819845701
N            2.99166057821121       -1.38257464809768        1.29395497656350
H            3.92333422973009       -1.02226407734009        1.41659677048288
H            2.79535182311756       -2.33189850456292        1.56395237068290
C            0.87796216230986       -1.36605198431904        0.22923688682888
C            0.82772378002603       -2.74467693779043        0.51985785124129
N            0.82050137596977       -3.86591205220129        0.77283696036335
C           -0.31619915343872       -0.82515185010455       -0.26761143359239
N           -1.24482205675121       -1.65455505816161       -0.70262512518140
C           -2.54597445719247       -1.47859150058891       -0.75224107694133
N           -3.29143952527347       -0.71639132825290        0.05653175806537
C           -2.88675110115027        0.41461484555861        0.58812941669273
N           -3.73146743672542        0.97600607964743        1.47342252332152
H           -3.57664018122890        1.91407261775840        1.80145493668771
H           -4.61713411368356        0.52814332602157        1.63198647311081
C           -1.70504250275470        1.15801421472927        0.23938368708191
C           -1.72607894098309        2.53593409389189        0.51708284554000
N           -1.78925388914793        3.65680301778591        0.76747769017498
C           -0.51637676151230        0.63288988287914       -0.27991675426080
N            0.38785117723942        1.46752625486785       -0.75341373361953
C            1.68938245547050        1.38517668309529       -0.81095796459671
N            2.30341406470577        2.25798069265101       -1.63765787417626
H            1.73644929037888        2.96628167450222       -2.07223660741057
H            3.29635898936351        2.40260353030446       -1.56521596518941
N           -3.23061446280067       -2.26558317746739       -1.60442407113855
H           -4.22754517132908       -2.32637897257171       -1.49631219652954
H           -2.73441129577990       -3.00815387636022       -2.06553618845626
