26
 energy: -43.170280412624 gnorm: 0.000897240535 xtb: 6.6.1 (8d0f1dd)
N            3.29412584299816        2.57098744384023       -0.34125836233623
C            2.29168623592425        2.04025113100704       -0.16093906662740
C            1.03954994791246        1.42997003495325        0.07535520666796
C            0.06840562111543        2.31634051903778        0.65679742283042
C           -1.27089207890382        2.19646133672529        0.64605884057077
C           -2.03391904268433        1.15121065280375        0.00799098206702
N           -3.32372120572529        1.46537819252361       -0.27910556138031
H           -3.64045140939778        2.41435216541614       -0.19605772291697
H           -3.89297556989203        0.81167775043453       -0.78963273954890
C           -1.56230070114473       -0.11461061820485       -0.25764994726632
C           -2.43149358243687       -1.01128047543148       -0.90199476614664
N           -3.15619707215240       -1.72539513917300       -1.44130421057074
C           -0.26401124440813       -0.69645798870733        0.10681671946618
C           -0.27124756162494       -1.97083793534413        0.59394982527477
C            0.81425743005789       -2.83757464981076        0.88138586887637
C            2.06458055055776       -2.78575409387729        0.35856435587214
C            2.53228447631287       -1.82283387353231       -0.57925183544406
C            2.03704078548254       -0.59045079566948       -0.81794914695813
C            0.92807570369784        0.07997926143448       -0.17033675404041
H            2.55652479118076        0.02004775338265       -1.54820250196760
H            3.42197369415311       -2.10439146767669       -1.12892059479132
H            2.75446498004898       -3.58129215249582        0.60547117165763
H            0.57244372026806       -3.67856740875667        1.51901695214161
H           -1.24779534320658       -2.37787506557129        0.83053281470816
H           -1.86044594646149        2.99710450383063        1.07338433889783
H            0.48870656822941        3.21506414873851        1.09223212317496
