26
 energy: -46.396889256681 gnorm: 0.000291953920 xtb: 6.6.1 (8d0f1dd)
N           -0.21109551691546       -3.55622680990039        0.43701410764314
C            0.14512635914662       -2.46771147667870        0.32267205604261
C            0.63803937761528       -1.15667545742778        0.19291423379784
C            2.04319569243280       -0.98670473861970        0.38474670182160
C            2.78269302872638        0.12118516103705       -0.00164490345945
C            2.26626125954193        1.32148518657387       -0.51893457213178
N            1.06970895529572        1.82762643468073       -0.29331565228513
C           -0.04104769518539        1.24418827254176        0.10055432894768
C           -0.98201518166805        2.01110682743238        0.80597419268252
C           -2.29872829888387        1.68565820177748        1.09931619810426
N           -3.10616758049290        0.81428992869454        0.53760224023154
C           -2.68844402476323       -0.03724030295695       -0.41275091121164
N           -1.50683585927246       -0.59561078547801       -0.53288536447598
C           -0.33017108669560       -0.18238596679547       -0.09926731422047
N           -3.64781826172867       -0.46729897760590       -1.26153680900173
H           -4.60121770862572       -0.24993986262452       -1.03001171657972
H           -3.44940797950193       -1.27077818707337       -1.83186809703237
H           -2.80110248624437        2.30458980833627        1.83810779883385
H           -0.59766100694130        2.93574335166089        1.21588292545355
N            3.09554789675723        2.12892923433783       -1.23056767249457
H            2.76853778056049        3.05449327099297       -1.44607465273477
H            4.08354935885533        1.95232274228279       -1.24310380060351
H            3.86053263226623        0.02985492243070        0.04102477794575
N            2.71257487175482       -2.04647146036424        0.91113471721448
H            2.23105304465250       -2.92361549819043        1.02017533063906
H            3.71668699051395       -2.05908978196383        0.88300946117388
