27
 energy: -47.689956855592 gnorm: 0.000812705688 xtb: 6.6.1 (8d0f1dd)
N            4.89713708757619        0.88945042642675        0.26691992151354
C            3.75776113678523        0.82351701588437        0.13006733425044
C            2.36160692588536        0.73085422593365       -0.03315765336226
C            1.75421753065410        1.81322938218715       -0.74337660269537
C            0.45888843184887        2.18102595093223       -0.77883843719703
C           -0.67529053847260        1.54605425017411       -0.14123651767675
C           -1.68554809108775        2.34431561927887        0.33296286275433
C           -2.90440039331233        1.98680949326639        0.94865709426751
C           -3.59855157987643        0.82132167368546        0.80388029752577
C           -3.22066784983467       -0.23878570827771       -0.04924090781252
C           -1.96483161987947       -0.52509187910517       -0.49244660614563
C           -1.81622890851002       -1.53855756249581       -1.46664460395025
N           -1.70193574770262       -2.31658075540745       -2.30255491752876
C           -0.70300684704186        0.10315683562799       -0.07924570490720
C            0.34350828210556       -0.72813992843545        0.22536171865719
C            0.02924898160045       -2.09624150308669        0.41536679027911
N           -0.17993809262685       -3.19906516834471        0.65781583822505
C            1.73897363474100       -0.40267585103360        0.46692431351528
N            2.46299126452699       -1.31891494570250        1.14614245994728
H            3.45976461976589       -1.19969508412878        1.22538827424868
H            2.06082118493169       -2.20932596035394        1.38762912780587
H           -4.01322761577570       -0.89652792726650       -0.38607916221018
H           -4.57319763855217        0.74535403861575        1.26471403874166
H           -3.37859786932068        2.77396813693682        1.52122223612346
H           -1.47953245614436        3.40782436017178        0.30838243725106
H            0.21468943128741        3.08639953928097       -1.31996705274935
H            2.46295764979538        2.45808717881077       -1.24926291628728
