28
 energy: -51.403475313050 gnorm: 0.000724562970 xtb: 6.6.1 (8d0f1dd)
N           -4.72629895095325       -0.53997603187579        2.16286236473203
C           -3.90672703160118       -0.18882593271471        1.44099965047925
C           -2.88483427886467        0.22767786726244        0.55913454330957
C           -2.98977677705466        1.46435582281521       -0.02429028114898
N           -2.31193282634868        1.81649012287007       -1.12803265873209
C           -1.12312924315399        1.51663973222388       -1.42787608697608
C           -0.13659432174208        0.88590273170026       -0.51458250782248
C            1.04283602927425        1.46911701412656       -0.19649130597195
N            1.35880750274812        2.72931653388682       -0.65737994800273
H            2.09059802906189        3.21911311968097       -0.16700472033619
H            0.59622341205283        3.30666080035278       -0.97122877975892
C            2.04944274064537        0.81757095625007        0.63545234853272
C            2.89845976508558        1.67811994733458        1.36454289342295
N            3.56820810455187        2.40290224589468        1.95180496573786
C            2.29639413987038       -0.51813095692970        0.69836201949831
C            1.62394685431467       -1.56229497059099       -0.00689135309411
C            2.35669652276533       -2.75761980794249       -0.17344957126630
N            2.93104985721208       -3.74004574789284       -0.32825647030285
C            0.32564805579089       -1.54990735983029       -0.47634805831587
N           -0.16650164742771       -2.57861702057475       -1.19558226119334
H            0.41616408435807       -3.37236275159907       -1.40821620525766
H           -1.14408630728095       -2.61620682419466       -1.42483187417568
C           -0.60433695215320       -0.44814906948792       -0.17898766886934
C           -1.85200702569311       -0.73052177309382        0.27800947781629
H           -2.08245641467229       -1.75643112223324        0.53967941036662
H            3.15152618761836       -0.83629043725384        1.28328346707660
H           -0.81029277545713        1.70134542171436       -2.45199097070420
H           -3.79080679763970        2.13614643890566        0.25219849865614
