23
 energy: -44.805680112577 gnorm: 0.000556035730 xtb: 6.6.1 (8d0f1dd)
N            5.57124710092725        0.74775573953923       -0.37538465613324
C            4.45131568393760        0.55005751307399       -0.22820237967327
C            3.06738309946946        0.32933317663949       -0.05838927440245
C            2.47743068262753       -0.74927955799889       -0.70269115086255
C            1.17556972754556       -1.24145237222531       -0.54643711679537
C            0.07860183829090       -0.56942457826794       -0.04209432906006
C            0.15596374076081        0.88104953687906        0.16597568844948
N           -0.69406312073451        1.70896370458887       -0.35742281109118
C           -1.95987140172563        1.59086894104745       -0.64744688086654
C           -2.82342752665826        0.62303870151924       -0.12219308778660
C           -4.21299646797427        0.86854529740092       -0.19593353483759
N           -5.34043698550699        1.06910721421612       -0.25345212049242
C           -2.41374504534054       -0.62658675517401        0.38030099503049
C           -1.15383439081778       -1.19735099895780        0.32781183410669
C           -1.04761733743632       -2.55058852299726        0.72841572854107
N           -0.95041695952209       -3.65029280975044        1.03825144481109
H           -3.20939548781054       -1.27276820191433        0.73521839138150
H           -2.36565786423495        2.38009843731767       -1.26958558596530
N            1.12837554078425        1.33319863562708        0.94647904080143
C            2.38813051777867        1.10795459118211        0.92484066739922
H            2.97037070580149        1.56219152036884        1.71925804210464
H            1.00234147644541       -2.24845901314959       -0.90543756856750
H            3.14422140259315       -1.36312268646385       -1.29666895769147
