32
 energy: -52.690526580546 gnorm: 0.000874943821 xtb: 6.6.1 (8d0f1dd)
N            4.48521573598218        0.81493637415041       -1.07764983621640
C            3.47874340593962        0.46198611320298       -0.63901381841072
C            2.25054294577102        0.05334291111291       -0.10099667197676
C            1.11896932473193        0.70001472426254       -0.53739773751075
N            1.17752866988179        1.60231646057226       -1.55368086705026
H            0.39165274146762        2.21516144094034       -1.68656118019562
H            2.07500219651874        1.88649389128376       -1.91207505607435
C           -0.21562993522834        0.43400120345693        0.00544681060757
C           -1.04254678435318        1.44719184044796        0.40902142640873
N           -0.55140504492409        2.76325706750916        0.45331412720645
H            0.43225227174489        2.83217110080993        0.67501115034682
H           -1.10533096722195        3.37031835470986        1.04019916781311
C           -2.39277652273345        1.27562320418102        0.83424619936245
C           -3.23052477077361        0.25283679776979        0.48977649551942
N           -3.01520102198781       -0.65895201207493       -0.49619479541325
C           -1.87366755616061       -1.15331266914750       -0.80878949904181
N           -1.77649748209937       -1.89774662500019       -1.93208905626168
H           -0.91267373830728       -2.35179633715220       -2.16334192300340
H           -2.57811669663437       -2.00398818766269       -2.52858713988872
C           -0.61505667636309       -0.96912214794405       -0.04839322946938
C            0.09062158561880       -2.01107055883411        0.42443380858040
C            1.35246105204059       -1.94216175768160        1.09612138115680
C            2.31227999238261       -1.00473844815064        0.90585467930125
N            3.47779121170487       -1.02968136164078        1.65323239066302
H            4.28455642581713       -0.58406000068795        1.24376750628076
H            3.67521295398618       -1.89205052930948        2.13523201897475
H            1.57476734646606       -2.75130942321837        1.78070991580658
H           -0.34661778658669       -2.99976263340352        0.34294632116652
N           -4.47697382467054        0.13536357481776        1.07143956322482
H           -5.12715506578343       -0.43103520675653        0.55076734049019
H           -4.86609352417079        0.96766703144189        1.48350685673179
H           -2.80321003136044        2.06025370439799        1.45853748867165
