29
 energy: -50.347844089405 gnorm: 0.000476001190 xtb: 6.6.1 (8d0f1dd)
N           -1.71549972154381       -3.67798349173573       -1.53265509308987
C           -0.94437921351959       -2.92795757696009       -1.12348203121641
C            0.00659275731597       -2.01812701147601       -0.62492715847018
C           -0.51447477117641       -0.74822660641136       -0.18520692607055
C           -1.82627722369413       -0.68983458749747        0.22272831314189
C           -2.64085493181603        0.41856374777047        0.58984736463661
N           -3.76537819834115        0.11204308407079        1.29434121128838
H           -4.47241209727350        0.81393505405467        1.42268560953341
H           -4.04452144733633       -0.84912984016976        1.38116897593240
C           -2.42977089358413        1.73491934114290        0.22706877080346
C           -1.33547550736829        2.15912139456435       -0.55957669978273
N           -0.15205893601953        1.60491272278193       -0.59608878339122
C            0.32400277674007        0.44149448451316       -0.18410784940193
C            1.67473486743793        0.47452863811730        0.20904881875877
C            2.16217160312653        1.77669549639828        0.43734952879864
N            2.59912211071262        2.82058480441172        0.64880013670320
C            2.61398296233462       -0.58007145586442        0.37550648658889
N            3.80653313758949       -0.25195651644579        0.93824438418150
H            4.56377280282758       -0.91150429240849        0.91054891565060
H            4.02197802059665        0.71503252927006        1.11448562512727
C            2.44631008267618       -1.89488118631667       -0.05414017136738
C            1.30806001932099       -2.48604423834273       -0.57522131548052
H            1.43706502966228       -3.49993649247144       -0.93857466311337
H            3.32335497579798       -2.52561781752921        0.01666471612992
N           -1.47033297480571        3.28263441109589       -1.30877906070027
H           -0.63514235234066        3.66363605165548       -1.71929139723163
H           -2.24345410721542        3.90135454530853       -1.14300761535566
H           -3.20622925987336        2.45639892816336        0.44142262432159
H           -2.32041591563094       -1.64946077818981        0.32650504267549
