21
 energy: -39.783092999361 gnorm: 0.000367269501 xtb: 6.6.1 (8d0f1dd)
N           -0.73859061122384       -3.20251566483998        1.45740579563393
C           -0.94103592981681       -2.18503666689545        0.96704169800096
C           -1.21613335834621       -0.93913858006268        0.36275064162910
C           -0.07364843312252       -0.22212082983915       -0.11362769601055
N            1.03651961933594       -0.85175499650539       -0.35836481211040
C            2.26658040931771       -0.34039623941860       -0.35009254786543
N            2.71968032676661        0.60407688474145        0.47227784875146
C            1.98596523370480        1.59696864767271        0.92955231070216
C            0.72516636901616        2.01774021433454        0.53170859960486
C           -0.21528349599117        1.24476391991791       -0.16318310835673
N           -1.22622033163492        1.78895994071710       -0.80425139125372
C           -2.42513787901849        1.33703463374796       -1.01800218114819
N           -3.10592769495247        0.47947904761548       -0.28054727120897
C           -2.53259739670211       -0.47591257068976        0.42050668022474
H           -3.22590388190575       -1.05276084107034        1.02579356875618
H           -2.98398267901362        1.82822483369606       -1.80806724595287
H            0.40639179170668        3.01158324692770        0.81496869657057
H            2.52380956822943        2.22864760121696        1.62966223254258
N            3.17666161150191       -0.95805731862511       -1.11503456268439
H            4.14578109203833       -0.71955511559045       -0.99739315530177
H            2.91495846500652       -1.78980847554911       -1.61497242522849
