24
 energy: -38.127026894211 gnorm: 0.000625671283 xtb: 6.6.1 (8d0f1dd)
N           -0.90814663118732       -2.21389547566881       -1.55022453511057
C           -1.03289040624675       -1.42744300974029       -0.45997391065003
N           -2.19337093447738       -1.21852958465916        0.05292807199195
C           -2.49650798437245       -0.18906825946462        0.85980010198981
N           -2.03355496632408        1.00899967881672        0.84170579019735
C           -0.92745781439915        1.40394510787062        0.14697174138138
N           -0.89441581314582        2.77719649727588       -0.03054059012189
H           -1.79310011443583        3.22160760228015        0.06242418737358
H           -0.30101810313207        3.13477958366934       -0.75964324480288
C            0.16145551018561        0.63142592959333       -0.17169786253174
C            1.32292344394175        1.17395427123117       -0.88147276155642
C            2.60086326826498        0.94916405295203       -0.55863826615303
C            3.09006548581708        0.12302087029155        0.52378515851125
C            2.49262180516489       -0.97554122294183        1.01057873783720
C            1.23666997090327       -1.51887859978946        0.55256159135317
C            0.21549912916342       -0.80480368130552        0.05680677103334
H            1.11315839163214       -2.59027192532172        0.66074340133167
H            3.01026984847702       -1.56260198323568        1.75890274518349
H            4.07027369298064        0.38864472846704        0.89936114603012
H            3.37204117484197        1.44063790283361       -1.14065452762644
H            1.11145573506866        1.80480486002956       -1.74161319946444
H           -3.35868169296136       -0.36029366431599        1.49562571911483
H           -0.00581185002355       -2.56530751551000       -1.81530123590144
H           -1.73493980493508       -2.62531662825805       -1.94769749221039
