23
 energy: -38.418167556994 gnorm: 0.000317483060 xtb: 6.6.1 (8d0f1dd)
N           -3.43548588775630       -1.47368694319051       -0.80311529294530
C           -2.49021132174489       -0.70832066517778       -0.19595855911642
N           -3.00344328879592        0.39058508510188        0.38813409611804
C           -2.23218213463363        1.28551512830649        0.95348124420686
N           -0.99663064445742        1.60599932352912        0.69597332870967
C           -0.01257735635900        0.95300284971859        0.11075329615322
C            0.98538994022731        1.71937853088736       -0.51156939305701
C            2.28124641181025        1.34429091248437       -0.80742906221776
N            2.99257886257141        0.31121100425426       -0.41289980411475
C            2.51966004620155       -0.77863590584925        0.19559361197882
N            3.50297771535365       -1.58303689225910        0.67348441554060
H            4.45325629469815       -1.32049586528717        0.48138592575426
H            3.30074026113135       -2.50570839123504        1.01189119406364
C            1.19723219905430       -1.23499859106196        0.27889017872182
C            0.01983426646373       -0.50965164088849        0.11370269098086
C           -1.18344061206698       -1.19616103576022       -0.13027505607996
H           -1.06443023193372       -2.23678466645080       -0.41261796038201
H            1.07929279829865       -2.29028072707640        0.49928911722876
H            2.87576324004869        2.05755334996053       -1.37343293575059
H            0.70068260405276        2.73812866219898       -0.73957326221656
H           -2.73413585629701        1.94337161066914        1.65919345376178
H           -4.39295455552961       -1.19359786875915       -0.67915897657419
H           -3.23752355853722       -2.42764538221412       -1.04647470666456
