26
 energy: -53.543211040850 gnorm: 0.000477287843 xtb: 6.6.1 (8d0f1dd)
N            0.54779984436878       -4.98385830878608       -1.07434923612040
C            0.35308895865973       -3.90239770794385       -0.75243214638623
C            0.12502842925125       -2.55860631557618       -0.35873791999395
C            1.10733804958767       -1.98850067729385        0.51803982930219
C            1.34707950597863       -0.67025201119972        0.70327649791109
C            2.30763509477784       -0.26901020521497        1.66558689710545
N            3.04901089159839        0.07348982678731        2.46865165092490
C            0.68914036861798        0.44595800271546        0.00788521181324
C            1.43351014627714        1.45794147523447       -0.53303780083025
C            2.84025630558975        1.32280002147817       -0.61782365508382
N            3.97463090201414        1.22411713105905       -0.74314359541587
C            0.85340968546292        2.61960135248087       -1.18104142255022
N           -0.19233657202003        3.23865876888820       -0.80066841961516
C           -1.01963455614720        2.89536921801889        0.20147909858855
C           -1.40525004888719        1.63018628711721        0.52768012650473
C           -2.42531655440021        1.43033547873305        1.48586417481011
N           -3.20891404986480        1.25901386287544        2.30460295542865
C           -0.76328012166986        0.41627432387947        0.00859209048835
C           -1.51128858219918       -0.67642628065084       -0.35183887124918
C           -2.91449575503026       -0.49276447871203       -0.48730904617521
N           -4.03963491097752       -0.36739883460016       -0.65725494283267
C           -1.04545921864471       -1.96993764455332       -0.74088075371928
H           -1.74730229301636       -2.56649892079875       -1.31138048733997
H           -1.50535300684687        3.73874662212398        0.67760919514532
H            1.38844980060912        3.04106484638250       -2.02500632671824
H            1.72928968071105       -2.69399918914385        1.05602354060766
