28
 energy: -57.006237263568 gnorm: 0.000742157380 xtb: 6.6.1 (8d0f1dd)
N           -5.63045292645970       -0.34127167332171        0.68441026111885
C           -4.51782989365306       -0.20163598013382        0.44790881408680
C           -3.14019077727712       -0.03238949434285        0.16140300574806
C           -2.50262224336743       -1.12200085305779       -0.46340146889998
C           -1.15399806813792       -1.33699897580059       -0.62398252271467
C           -0.77432799996140       -2.54248470375445       -1.26493803853428
N           -0.47923694006682       -3.48275197837564       -1.85078909206803
C           -0.07279969321445       -0.46909138375607       -0.23589349734554
C           -0.21700330777787        0.96912915027179       -0.35494064985582
N            0.72756885206316        1.63326614424867       -0.98791637668842
C            2.00888390904715        1.54783296846403       -1.05102022464222
C            2.81957518490340        0.81602194831343       -0.16248069536863
C            4.17280433211289        1.18519390391445       -0.03338644363946
N            5.27721400838271        1.47123570366493        0.09476815578067
C            2.38415525965790       -0.35654397902881        0.49410948445068
C            1.12314466339484       -1.00582680697754        0.23682586189252
C            1.07405627065959       -2.35586777078869        0.66298354061036
N            1.08334152887811       -3.41993585604174        1.09355619410421
N            3.25338239878667       -0.99498500716467        1.29115412730824
H            3.03757008069903       -1.90568117575235        1.66562807743888
H            4.18398202683763       -0.62658405574709        1.41224061303006
H            2.48342405311916        2.16304552622409       -1.80665995596740
C           -1.32381574545305        1.68448270051390        0.15084701545255
C           -1.09163550547655        3.06559965000838        0.36816321014707
N           -0.90195888618334        4.17835717981333        0.56509513481384
C           -2.59054836381081        1.20365205827835        0.47733806738995
H           -3.25923785171165        1.92143346648708        0.93904398860072
H           -3.15373371738798       -1.92437505065432       -0.79190164014979
