30
 energy: -54.085992084404 gnorm: 0.000595320824 xtb: 6.6.1 (8d0f1dd)
N           -5.45378686990880       -0.39111462229571       -0.64253523850684
C           -4.33315916094648       -0.24360806767370       -0.41098271605114
C           -2.97536259571787       -0.07945471367163       -0.12496734048238
C           -2.33203325734451        1.09491784338110       -0.55226962807532
C           -1.02798726519293        1.48981264316184       -0.19841835258025
C            0.02876671466443        0.73369200231585        0.27087085041532
N            1.09651435015589        1.38951781842471        0.72520654299677
C            2.35847614237997        1.07795894810376        0.70276477441684
N            3.17395438173853        1.83674901478784        1.47561150113903
H            2.77221851595606        2.63454433537559        1.93613890176615
H            4.16866196534230        1.80505476356754        1.33166785212103
C            2.97546589910416        0.07916229579211       -0.12445284892716
C            4.33350552788668        0.24281982722187       -0.41023595907817
N            5.45348975741482        0.39066471298552       -0.64418743936433
C            2.33218412119970       -1.09583507297671       -0.55006381270443
C            1.02810127843507       -1.49017420296504       -0.19575361569107
C           -0.02879470374971       -0.73333710702887        0.27209098837754
N           -1.09659308638798       -1.38853017869550        0.72723017884472
C           -2.35857921495464       -1.07696048537750        0.70398975830264
N           -3.17413842932109       -1.83452753393148        1.47792879797079
H           -2.77242707047962       -2.63164110021965        1.93966004482386
H           -4.16884607385974       -1.80306312848167        1.33386498051401
H            0.79619682343219       -2.53598637196623       -0.35644072174971
N            3.05663460129258       -1.97670822613883       -1.28629341900395
H            4.03581377685002       -1.80991682137917       -1.44442570425295
H            2.68307217923788       -2.88641817188045       -1.48598129624284
H           -0.79605815830877        2.53537497168895       -0.36074029588230
N           -3.05644527352837        1.97469463789841       -1.28983180460938
H           -4.03555650919076        1.80764863495969       -1.44779241220403
H           -2.68278896619947        2.88413928142012       -1.49105560548529
