20
 energy: -36.050900803927 gnorm: 0.000835166500 xtb: 6.6.1 (8d0f1dd)
N           -4.79313979275881       -0.07879645578643        0.01375138840870
C           -3.64575235135201       -0.04801802715413        0.02516637313568
C           -2.23902855924856       -0.01237074953421        0.04041286062076
C           -1.50854029282420       -0.88517726232840       -0.79451416892812
N           -0.26503823099141       -1.21372143558160       -0.62978876565435
C            0.72147010359179       -0.68814630689019        0.05225656045720
N            1.65409037201341       -1.39175364137179        0.62661249958148
C            2.92349083488799       -1.05991920764104        0.74134254783824
C            3.60282425592243       -0.07845427310698        0.03583090781571
C            3.03869241246345        1.03122640749216       -0.60251004053611
C            1.74182325722893        1.49950300358719       -0.52649470096386
C            0.68196172447606        0.80492037828988        0.07160677067424
N           -0.35054418545036        1.33502297224137        0.65340656890611
C           -1.57464823506552        0.92301788639411        0.84781399388445
H           -2.12475867726539        1.46649146024067        1.60735150272125
H            1.52267804679174        2.47977248090161       -0.92787993615931
H            3.74026054586288        1.68116316764567       -1.11121975435066
H            4.68141567018243       -0.14518363137281        0.02603466271959
H            3.49066107988058       -1.73166454767640        1.37570969398742
H           -2.01936799344551       -1.40291387294897       -1.59883398395830
