26
 energy: -51.219213889158 gnorm: 0.000407599887 xtb: 6.6.1 (8d0f1dd)
N           -5.20095504710286       -0.16316096056285        0.79641034830422
C           -4.06381711443028       -0.25443573145490        0.65292552943171
C           -2.67978298709532       -0.33878024218037        0.43903899711550
C           -1.88391220413172       -1.11849314591008        1.27077718286340
N           -0.67684272826625       -1.55442748374019        1.00957222681636
C            0.25497003756175       -1.11037932544804        0.21530345341410
N            1.18108921192644       -1.89959263436438       -0.27604603636357
C            2.41229480511311       -1.50971220686109       -0.56133330992213
N            3.10605594215287       -0.52663051021446        0.01498752815759
C            2.62186666922976        0.59649189050359        0.49950728414896
N            3.49315141245612        1.35620483552577        1.18875271301850
H            3.25023444958843        2.29652456613224        1.45046758445714
H            4.44650463210961        1.04579706230178        1.25801630628836
C            1.31489492222605        1.14180415071983        0.25125603074470
C            1.15007136589854        2.53045065033341        0.37731627830712
N            1.05456412945866        3.66955368766024        0.50368027377476
C            0.21663667077445        0.35428857523321       -0.08710382342679
N           -0.86460830499107        0.82991737095868       -0.65514348776282
C           -2.10955270391995        0.42193040224739       -0.63847690437007
N           -2.91117328485327        0.86222021249545       -1.63207319060702
H           -2.54231505739425        1.54681043974845       -2.27014116333034
H           -3.90896168812625        0.78068399250970       -1.53076369812759
N            3.10876025356387       -2.29106965475015       -1.40779343827329
H            2.69554390055118       -3.15762808950858       -1.70419206169791
H            4.10283587872494       -2.16184726464779       -1.47163162920199
H           -2.31677046438131       -1.52104113576706        2.18033307690878
