29
 energy: -50.344069955963 gnorm: 0.000883598610 xtb: 6.6.1 (8d0f1dd)
N           -1.45575303611951       -3.70900893016889       -1.44584903421900
C           -0.73700844339058       -2.91624916204344       -1.02364506108301
C            0.15989258759309       -1.95570126508852       -0.51785231806546
C           -0.44278962714840       -0.70339894543573       -0.08007290151377
C           -1.75212522210453       -0.78844247725158        0.31394186002783
C           -2.73846466726967        0.20146262656965        0.57245863188274
N           -3.85727765402520       -0.23919503175167        1.21145295160546
H           -4.00048810675755       -1.22734659139868        1.32479089469954
H           -4.66909847197158        0.35157466655726        1.24964396898972
C           -2.68792168954708        1.52034583572111        0.17684248417448
C           -1.60680892478558        2.18564426826034       -0.43148955991865
N           -1.86747208819050        3.42874895325979       -0.92543362062732
H           -1.10131979716802        4.01751918252755       -1.20145983300945
H           -2.73958810423591        3.87648423091772       -0.70734962178551
C           -0.29363410241549        1.74164238355754       -0.52573562297771
C            0.32060566163810        0.52672093883195       -0.17816320911747
C            1.71504378260424        0.58073077982817        0.04527993810135
C            2.30136163601038        1.85402867924897        0.12432932686107
N            2.83839245951029        2.87169451514054        0.20109241633119
C            2.62684089767642       -0.48594378743537        0.34475790211100
N            2.54970107701974       -1.74949246598907       -0.01608946656940
C            1.48369818526291       -2.33235989059813       -0.53743115584013
H            1.70484466986361       -3.30734691915882       -0.96377653323082
N            3.76287034747717       -0.16903310316678        1.00563042850384
H            4.01216347824386        0.79091562255014        1.17146415546026
H            4.45893643993905       -0.88889850695174        1.09507941752782
H            0.39641033590147        2.49869135766582       -0.88231203934844
H           -3.58461717863816        2.10920270907931        0.32729356167306
H           -2.12312654764717       -1.79981552675818        0.44198170705402
