27
 energy: -46.099835518289 gnorm: 0.000798181772 xtb: 6.6.1 (8d0f1dd)
N           -4.52820139044853        0.05785309495879        0.72374817580527
C           -3.46081433660079        0.25287838018068        0.34067920538931
C           -2.14816042578976        0.45452651861816       -0.12431134331487
C           -1.99509858151082        1.47917917094882       -1.13057107079502
C           -0.88984465136233        2.20029493405508       -1.39408664230733
C            0.37866964366183        2.06461458619125       -0.73291252956067
C            0.85170464990721        0.93510266829414       -0.18626215771793
C            2.13999628099107        0.84776307016217        0.55527318503144
N            3.13935354019611        0.15486694720508        0.13629312445875
C            3.06147207058866       -0.82572616220764       -0.77213073523774
N            2.10299011266213       -1.66265184347804       -0.96956598568807
C            0.84927258387953       -1.53787833080236       -0.45212314254641
N            0.19082765607538       -2.76758660564741       -0.33801357515894
H           -0.77503958219022       -2.76211651285313       -0.63715837754483
H            0.72343735369713       -3.49517551871763       -0.79584270126338
C            0.20701764004026       -0.36904808828085       -0.13645293792365
C           -1.16553784298848       -0.35740084950650        0.39185284983013
N           -1.39974381055706       -1.17174201331786        1.45398164423443
H           -2.34049697717749       -1.25408017479510        1.80596441114813
H           -0.76361016266039       -1.93558451298490        1.61344981896899
H            3.98911079032282       -1.03094393048094       -1.29477062753053
N            2.21443586696857        1.51288654210148        1.72174507120536
H            3.03920246060385        1.42227888982769        2.28977685902764
H            1.51113860931777        2.18561948219260        1.96917552156868
H            1.00199044791937        2.95016587495634       -0.70372081132027
H           -0.96448010658609        3.00627090848670       -2.11169566157257
H           -2.91301776246000        1.74206282659374       -1.64217384828486
