28
 energy: -51.419295203037 gnorm: 0.000603607037 xtb: 6.6.1 (8d0f1dd)
N            4.94436980236221        0.13922203711843        1.35151822666545
C            3.88558157146741        0.33188743938486        0.94757418696522
C            2.58625048336130        0.54748694857268        0.44741384075951
C            1.99067983997784       -0.54213906990071       -0.28258559449827
N            2.82554936729328       -1.51746013539650       -0.69895646438525
H            2.45621769479911       -2.33807104551347       -1.15013991433164
H            3.79539966956081       -1.49912660136055       -0.43189218463473
C            0.63050515211926       -0.65392685573448       -0.54952869866333
C            0.23930705684780       -1.77528047471898       -1.31059824425155
N           -0.02433641411971       -2.65436409739512       -2.00378839661305
C           -0.46437275612499        0.20655107742468       -0.15599324751438
C           -0.31114491719489        1.64562247358248       -0.25188982491450
C           -1.36950442016508        2.42129160819966       -0.81936102802471
C           -2.70412223387885        2.14145181683983       -0.87370510411653
N           -3.41375851162729        1.24263653985556       -0.19174446805104
C           -2.94810243892429        0.18255568544697        0.41011512217735
C           -1.64232512079062       -0.42387255855899        0.21043399697723
C           -1.57910078504599       -1.78938243786179        0.55722039772181
N           -1.59287986823072       -2.87116607369634        0.94757050800390
N           -3.80874224732192       -0.45888695885490        1.22114796558527
H           -3.59054018032228       -1.36657450906701        1.59661804392556
H           -4.74955164752265       -0.10787692123569        1.27652772709559
H           -3.33676712881297        2.81335997452977       -1.44460080135886
H           -1.05151598412036        3.34969672767652       -1.27722376533826
C            0.84679413400491        2.31261213403335        0.11057459203362
C            2.05958287692554        1.81379515010507        0.58374861527220
H            2.71169953476580        2.53863403918700        1.05786952318443
H            0.76788732861846        3.39279265723820        0.10820990182801
