29
 energy: -50.348897023448 gnorm: 0.000567712249 xtb: 6.6.1 (8d0f1dd)
N            4.69167485151880        0.94392711539693        0.44524649010533
C            3.56154364335694        0.77245921935018        0.29227478983967
C            2.18442761054055        0.57409692752106        0.11683481155556
C            1.79788933736954       -0.70937005019931       -0.37233469580573
N            2.79692215657243       -1.48851717588555       -0.86048162579997
H            2.60768767104186       -2.45112499981819       -1.08414506993281
H            3.75347515982370       -1.19529479723503       -0.75760834534927
C            0.51060266261928       -1.25346265026992       -0.32662916696105
C            0.39729444246211       -2.60476204074789       -0.69401865447720
N            0.32436247239572       -3.71046710786016       -1.01002746413678
C           -0.71258827794517       -0.64371689435935        0.11177345419626
C           -1.66241761631851       -1.43046864696498        0.72910421361172
C           -2.97470177543877       -1.10611250133183        1.13086327204894
C           -3.76840400350829       -0.09900455376950        0.67447768565215
C           -3.34927007130857        0.79236992428429       -0.36739460879796
N           -2.13355447887820        1.17562310738340       -0.59051517000312
C           -0.95465123634546        0.78140001453322       -0.09645037847254
C           -0.02073187166494        1.77219623692878        0.11362798666289
C            1.35681307501900        1.68375898951414        0.37290957612200
N            1.95550035923788        2.81441784040341        0.82263447388027
H            2.95540153302369        2.85686353461204        0.91899664139638
H            1.42033578349430        3.65687877448569        0.92654517741149
H           -0.42334969092836        2.77754747923173        0.08744311079329
N           -4.31373393738611        1.37148244239906       -1.13081220359692
H           -4.01439825143390        1.88935878186470       -1.93905887290357
H           -5.24234893080157        0.98984375959380       -1.12972635050335
H           -4.79638552975907       -0.03559595796736        1.00048967365833
H           -3.42424872901287       -1.80394697306076        1.82701323945455
H           -1.33941057036218       -2.42844991829163        0.99918774166766
