22
 energy: -34.690203655765 gnorm: 0.000810508341 xtb: 6.6.1 (8d0f1dd)
N           -1.26026240555407       -1.95851633300272        1.34955910624688
C           -1.26027155469208       -1.06175531489223        0.34314798640979
N           -2.36959715761455       -0.67025729049938       -0.16996268835105
C           -2.52960195468035        0.45194934130333       -0.89690788264522
N           -1.92878546665479        1.57918779085313       -0.75627624135533
C           -0.79508388864382        1.74516250451865       -0.03008300743182
C            0.19117626507544        0.84208718368753        0.21295016828643
C            1.41273686590546        1.22644476852164        0.92295626097419
C            2.65508592403755        0.85956138134718        0.58447671425996
C            3.05187662767443       -0.00251715263831       -0.50342199771882
C            2.32595397731737       -0.99336192973870       -1.04975889179601
C            0.99896932018121       -1.38242558830067       -0.64873691104736
C            0.07466756818648       -0.57327083430709       -0.10932540551659
H            0.72917924858834       -2.41516080549068       -0.83675289313380
H            2.78754847614403       -1.61811140585701       -1.80399204094919
H            4.07036941461034        0.13313857059652       -0.84500374479592
H            3.47846972324277        1.27043643771686        1.15705979757961
H            1.27463941282890        1.89397558463824        1.76585162656145
H           -0.62957081749627        2.77693523638800        0.26203550144678
H           -3.38624534384555        0.43431176145502       -1.56129771469839
H           -0.40181062031571       -2.36407361166042        1.67455315927686
H           -2.13502371999694       -2.24740535684070        1.75132380939510
