27
 energy: -46.894152358901 gnorm: 0.000557965449 xtb: 6.6.1 (8d0f1dd)
N           -0.73536053139092       -2.90555884277911        1.93730818261782
C           -0.13387141631941       -2.18646806082752        1.27305493480177
C            0.64621239898005       -1.27111258306710        0.53798687771964
C           -0.01602968432258       -0.01616696969774        0.18619565386989
C            0.75593030555598        1.19312347999109        0.40925077421137
C            0.12657853414987        2.29454043165385        1.09275944183592
C           -1.16458694037367        2.70167567256663        1.03528560885800
C           -2.22398542066828        2.20001633784948        0.25120193902578
C           -2.29169898301339        0.99223634967459       -0.39477814119014
C           -1.32307758066448       -0.07676109324433       -0.23162992722479
C           -1.80043309169215       -1.35027627580107       -0.62305412871887
N           -2.23288041417811       -2.32956962290916       -1.04131788515040
N           -3.36626075271374        0.71885356819195       -1.18681060297390
H           -4.15503574520339        1.34139823348479       -1.15767615591250
H           -3.53607549263278       -0.22989313979547       -1.47771402220066
H           -3.09330335594416        2.83929873187394        0.16496526761818
H           -1.40910114922056        3.58811396429986        1.60800444608649
H            0.80413276569714        2.88159223764368        1.70019658913905
C            2.07277069112535        1.31180469870711        0.05981332006250
C            2.89608123947675        0.33496443776278       -0.59156187433165
N            2.87361238552568       -0.96329678911978       -0.41461974819406
C            1.95022596049672       -1.61312972968545        0.28861896857937
H            2.27868592630226       -2.59304018742555        0.62168105872556
N            3.88990254672411        0.79502037463447       -1.38100622390164
H            4.03441220499671        1.77728017799158       -1.52417967044499
H            4.50975865196864        0.12754816084406       -1.80500595947528
H            2.52649594463765        2.28543059768381        0.20015412116691
