20
 energy: -36.054032196354 gnorm: 0.000599189383 xtb: 6.6.1 (8d0f1dd)
N           -4.84113429728499        0.00060835565752       -0.00343707559343
C           -3.69369360131892       -0.00089075877524       -0.00093527608746
C           -2.27836164168920       -0.00015653337362       -0.00069324840399
C           -1.67784055995118       -1.15977550024941        0.51373984287007
C           -0.35356534960401       -1.53361809012432        0.46599112265894
C            0.68609774481096       -0.74038347677193       -0.02627409911083
N            1.73875815696681       -1.23440927705952       -0.62975036358286
C            2.96474664374884       -0.82568517473873       -0.78265220068908
N            3.64342486479450        0.00019586193745       -0.00117328746079
C            2.96516190161716        0.82584540088239        0.78104451340516
N            1.73901623772535        1.23431504235390        0.62928193388776
C            0.68606356619947        0.74055086748450        0.02585532703232
C           -0.35361750145776        1.53387315614667       -0.46593882678261
C           -1.67790999382443        1.15974127787770       -0.51450192011794
H           -2.37008014877769        1.90034311588889       -0.89870485270255
H           -0.10360097073769        2.55268137474576       -0.72895129567888
H            3.52815615413127        1.31910376631354        1.56607895957179
H            3.52718871580250       -1.31917391808911       -1.56791589187222
H           -0.10342617149575       -2.55218986577067        0.72977910839093
H           -2.37011339735550       -1.90036870183563        0.89776892666562
