27
 energy: -51.707259329206 gnorm: 0.000976860716 xtb: 6.6.1 (8d0f1dd)
N           -0.08404675042601        4.15642941682999       -0.45859884993645
C            0.14528327116415        3.04187331214028       -0.31328203320083
C            0.43894427285165        1.66577825934805       -0.16799714730327
C            1.72001173341649        1.26099340882664       -0.55373821182416
C            2.36419092324488        0.06292204757648       -0.32309134274274
C            3.72308029067791        0.01296923344087       -0.70157071934363
N            4.82852672965124       -0.04846749977840       -1.00933549546400
C            1.83998340537626       -1.13556609540902        0.27463736747097
N            2.74271631833136       -2.07419479654239        0.62768135320222
H            3.71962598302166       -1.93750508920607        0.42734750391546
H            2.43328503300878       -2.96723412064763        0.97418579478925
C            0.48095594768531       -1.42688314613196        0.42772535000789
C            0.16562390178682       -2.74321183807203        0.81631480896711
N           -0.07766593879431       -3.82223212656356        1.13317779180992
C           -0.65088390988225       -0.58158656580317        0.19542776637659
C           -0.59474899313474        0.87078841966766        0.35491119382803
N           -1.56143481452255        1.45822197832403        1.03388569718973
C           -2.82470753284012        1.21580531501986        1.14557210419164
N           -3.59023007965490        0.52506054093962        0.32145084551877
C           -3.11256459606742       -0.49921819761668       -0.37473959578970
C           -1.84712738901657       -1.13888666134902       -0.20846023026340
H           -1.81378966672019       -2.17854565706269       -0.51223567205439
N           -3.98998854414586       -1.06881519470719       -1.21861881652614
H           -4.91517976669979       -0.67869438873396       -1.27342668044921
H           -3.78564207363470       -1.93696048145786       -1.68015901019875
H           -3.34092212103670        1.74087699623368        1.94183060550788
H            2.32609035808749        2.03415492145451       -1.01412060185472
