29
 energy: -50.347999404565 gnorm: 0.000951681208 xtb: 6.6.1 (8d0f1dd)
N            5.17422681722361        0.20878124879411       -0.32423517928183
C            4.03519645824602        0.11318997518350       -0.18604739942622
C            2.64586005930899       -0.02903137640906       -0.02931428422315
C            1.98235101054313        1.04800865675269        0.57450781709562
C            0.63557768255119        1.29317157226202        0.68642495572660
C            0.27808298955722        2.50961347345132        1.30036301944176
N           -0.01980114962496        3.49745636063026        1.80905733775570
C           -0.47506272288365        0.49883202652016        0.19650125923391
C           -0.37580588524901       -0.95550133677818        0.17004386273164
N           -1.40841426438552       -1.70089733908078        0.57043143287055
C           -2.69626598529162       -1.53666192541728        0.47502175748353
C           -3.38037888969384       -0.58344610920145       -0.32463700582940
C           -2.86550309284695        0.65134392610462       -0.64457829811810
C           -1.59947928047901        1.15891130926027       -0.21523332219875
H           -1.51941078535842        2.23907375114584       -0.26487042730338
N           -3.63037955290655        1.52037081584449       -1.36165499985069
H           -4.59375897490769        1.29993584384548       -1.54098769104232
H           -3.35278140794282        2.48338172741942       -1.42570697937320
H           -4.40749692484623       -0.79874348954383       -0.58570230909427
N           -3.44530582608682       -2.47589683233581        1.11326184159312
H           -2.96800143264140       -3.08885445958058        1.75078878095742
H           -4.43266897104386       -2.33885207385977        1.22808314923679
C            0.75594308780829       -1.66738999743987       -0.19425903522203
C            2.07704897413355       -1.26433707354207       -0.42135311445151
N            2.90669083504300       -2.17635986207524       -0.98698018821303
H            3.89266113881788       -1.98651403326174       -1.04963423623847
H            2.58081970576154       -3.10899105612607       -1.16488541283038
H            0.56968445701844       -2.72647069048927       -0.32986054283805
H            2.63326982027071        1.82880830712739        0.95458581870777
