24
 energy: -44.524112291537 gnorm: 0.000594476228 xtb: 6.6.1 (8d0f1dd)
N            5.12780323229809        0.29519033070531       -0.58008247227037
C            3.99407042385473        0.20476513126728       -0.43340618423181
C            2.59702925246909        0.10836334160619       -0.25281136114806
C            1.89420582644158       -0.81301989192637       -0.99750004080819
N            0.67975338682317       -1.24162013877615       -0.68950153783235
C           -0.32139571149695       -0.69359131075292       -0.12032084756741
C           -1.38573894432578       -1.56197841701806        0.38708739790811
C           -0.93912906699583       -2.71310320078941        1.07317201084060
N           -0.57374235138438       -3.63657390750158        1.64624762549862
C           -2.71721039585010       -1.37504751092496        0.18148047820981
C           -3.34593865087552       -0.28177160942646       -0.47117763569979
C           -2.84226871861610        0.96689136966515       -0.64774211500505
C           -1.58261510627260        1.46635589084205       -0.19299662299065
C           -1.49237574007631        2.87650424050081       -0.09711529283300
N           -1.43205310045893        4.01872380444945       -0.01690301762228
C           -0.45102536086334        0.74320101117101        0.10993125913980
C            0.67887601432289        1.32904449494419        0.78473817695611
C            1.99336033100136        1.00815077544730        0.68163565499429
H            2.68591991936606        1.57179263111752        1.29382930157816
H            0.41625085317537        2.10856008011889        1.49081169658640
H           -3.49429288041042        1.71274521715992       -1.08540782611380
H           -4.36817486249449       -0.45117796478162       -0.78061462669863
H           -3.37623384680529       -2.16447038010883        0.52260954757537
H            2.37774832617110       -1.36267027898899       -1.79512252666825
