22
 energy: -39.502762317321 gnorm: 0.000840413861 xtb: 6.6.1 (8d0f1dd)
N           -5.13843469254757       -0.20999682413775        0.21634735270826
C           -3.99132260014237       -0.16135545423177        0.17836812431545
C           -2.58591192738931       -0.09661643039695        0.13068402815164
C           -1.90828091381530       -1.03725674940675       -0.67952316640725
C           -0.57125369267370       -1.32244405127015       -0.70397159613151
C            0.51000953911448       -0.60578116359027       -0.11852749599693
N            1.63928559696181       -1.21650948434558        0.08872935943025
C            2.84441049603047       -0.65711005173035        0.23471226126264
N            3.30759977647100        0.40743337479490       -0.40583116614485
C            2.54662105329229        1.42247884987384       -0.78676241011540
C            1.24610451406800        1.72367960042654       -0.44051865149096
C            0.30553830176331        0.83190285016552        0.12152702693831
N           -0.72960403467318        1.28591306667592        0.77404090327994
C           -1.93968962569842        0.83568470703342        0.94685003185890
H           -2.50384987556181        1.33343684691379        1.72864798125035
H            0.88540268303927        2.72370188362892       -0.63860215275986
H            3.09949427055908        2.16798547809685       -1.34977266715508
N            3.73311154700826       -1.35409475605471        0.96102260281913
H            4.69351324271605       -1.06068945012408        0.95818451776544
H            3.47406286149145       -2.24990398786042        1.33417697028399
H           -0.25417311520313       -2.17961704161551       -1.28401415759685
H           -2.55095429151201       -1.68908935024651       -1.26008978586537
