25
 energy: -42.648206657862 gnorm: 0.000847250270 xtb: 6.6.1 (8d0f1dd)
N            3.91969175865164        0.62086613647170        1.89399734892373
C            3.07403110657410        0.18423145011048        1.25133650588725
C            2.01676209268970       -0.32612098555374        0.46477664963940
C            0.94263483673450        0.61990541198098        0.14914417679332
N            1.31662034159319        1.96130850039202        0.07288746144873
H            2.15896104392901        2.19273611673734        0.58031351829963
H            0.56882883289272        2.61977464558446        0.23651772810491
C           -0.32150306550462        0.23077851680219       -0.11179634561168
C           -1.38756283127295        1.19697891646635       -0.51733806111296
N           -2.43743971094971        1.42665197629574        0.18517952798453
C           -2.89877613207009        0.60616945184404        1.15033850951612
N           -2.86983460540690       -0.67781764930175        1.17275637737824
C           -2.09145399593697       -1.43093476772062        0.35664746694041
C           -0.87656267696094       -1.11831618500212       -0.16943135888809
C           -0.11790676413871       -2.10648856366980       -0.92704392070412
C            1.20859459175191       -2.29882623288730       -0.84656271471218
C            2.13023735999592       -1.59313472905454       -0.00283961433051
H            3.03552551474219       -2.13266834102122        0.24991549717577
H            1.64408338680625       -3.11411808988756       -1.41059381686496
H           -0.69852627323101       -2.76434098184517       -1.56343273686572
H           -2.45624009378393       -2.44616738247094        0.24195365009383
H           -3.51089612604253        1.09537978671291        1.89950513880484
N           -1.21004398768493        1.82085471635162       -1.69872334324804
H           -0.31325670595644        1.80887234719514       -2.15003476287749
H           -1.93891287922512        2.41699984917967       -2.05131421668395
