30
 energy: -54.867363389905 gnorm: 0.000723946174 xtb: 6.6.1 (8d0f1dd)
N           -4.80359162756279       -1.55780489899227       -0.17101977314030
C           -3.71278521627543       -1.18869178247471       -0.13660968178982
C           -2.38201960682497       -0.74128983157337       -0.10687496643616
C           -1.39243445166299       -1.67752350940439       -0.48063953775065
N           -1.82087991754453       -2.88305102321861       -0.92026659179704
H           -2.80318391069441       -3.09985835419717       -0.93120946468504
H           -1.16035227155393       -3.62061883235204       -1.08877051687198
C           -0.00561076392997       -1.51922722832626       -0.35849587638694
C            0.79595468323040       -0.40703399411248       -0.15396455835161
C            2.15955453266974       -0.67463499404534        0.18876778611169
C            2.42665148641427       -1.94840301123362        0.71825691284730
N            2.69676799472346       -2.97668164958403        1.16234090317350
C            3.28622521616956        0.17702266998367        0.11425226841759
N            3.42354743057917        1.26833346650613       -0.64010197859793
C            2.44594127013209        2.00539257879962       -1.09463955099693
C            1.09167963467084        1.98744147730276       -0.78263127471639
C            0.31321276583244        0.96102033016145       -0.23633429483231
C           -0.98629428358793        1.32992755022019        0.20866110736365
C           -1.11754900585358        2.69249226820298        0.54745268949959
N           -1.26301667344736        3.79189853340078        0.85627000355688
C           -2.17457321110081        0.58101845288927        0.35377506450681
N           -3.24056922822693        1.20461730932249        0.90315121002560
H           -4.13641601686721        0.74682352800131        0.92008936899466
H           -3.18271186905320        2.17687879078181        1.15600242958794
H            0.55302436690540        2.88838018844961       -1.04880536121417
H            2.78694433748036        2.81226509684611       -1.73658258987402
N            4.41605960489019       -0.17681071240893        0.76037621645266
H            4.48277620311420       -1.05225924598598        1.25049366163539
H            5.24044793357754        0.37304819544568        0.59240789571794
H            0.53845290079671       -2.45133324500362       -0.46476188904913
