24
 energy: -38.136194556984 gnorm: 0.000717150181 xtb: 6.6.1 (8d0f1dd)
N            2.71015302539726        2.12925170097121        0.94517646901793
C            1.91271584077812        1.15368937872959        0.41349885679947
C            2.43535121355594       -0.10778383762469        0.24619754913768
C            1.74638652821244       -1.20019668049833       -0.35362666620806
N            0.46538038268285       -1.42622455774793       -0.32862841455911
C           -0.50572149962824       -0.62874052781961        0.12063641230106
N           -1.44514311171185       -1.16389434040937        0.82983271766303
C           -2.70454826484968       -0.80498835604784        1.02456169194937
C           -3.46841946986822       -0.00888052583270        0.21003421171178
C           -2.94957237702091        0.89386293175714       -0.74204684753707
C           -1.65743660000760        1.30793411880927       -0.88458922368062
C           -0.48765086400910        0.80424666021230       -0.23331294626375
C            0.61411854544694        1.57657930718433       -0.00975522909805
H            0.49768806629965        2.64742284099752       -0.13750356234625
H           -1.46940870725390        2.10639217483812       -1.59401358905091
H           -3.68551595237219        1.40644280513398       -1.35135309899430
H           -4.54179933257560       -0.02801957702812        0.33833128036902
H           -3.17443980898360       -1.32020715114366        1.85642873506520
N            2.49997197481387       -2.13797742780918       -0.99385346325284
H            3.48402182092717       -2.19455305340739       -0.80090317108727
H            2.02629735408684       -2.98318552124443       -1.26413807521073
H            3.48742842377770       -0.24898553696582        0.45909912725804
H            3.69309496605495        1.95006361989956        1.05292374230652
H            2.42826170744728        3.08930630684720        0.85399477571005
