27
 energy: -46.092581973322 gnorm: 0.000740780797 xtb: 6.6.1 (8d0f1dd)
N           -4.26686152881331       -1.02710532489735       -1.42149189034265
C           -3.24446571536032       -0.77391673168012       -0.96007515852628
C           -2.01419258534802       -0.42047746718891       -0.37522578625562
C           -0.93206980014922       -1.20957878362932       -0.57791790507041
C            0.38896202843611       -0.99087614796099       -0.04102917411490
C            1.13707700466688       -2.07516592441133        0.32191508884624
C            2.42757618564129       -2.06434245639523        0.91742129021532
C            3.34166304570249       -1.06533583472873        0.80520213735010
N            3.30744141880191       -0.05243711273204       -0.08623157664626
C            2.25364789572318        0.49830843579863       -0.56149330714062
N            2.34744370280235        1.22941974806101       -1.69547056645982
H            3.25276100533549        1.33799202249223       -2.12034874631779
H            1.62032136728995        1.88645588587959       -1.91788205298280
C            0.87678261926593        0.38601181664104        0.00636245575667
C            0.16988467403111        1.49525845368234        0.31874660540729
N           -1.10614079966847        1.55050892316192        0.83398982659599
C           -2.05444443035304        0.73858005782716        0.55300546305557
N           -3.24237579190660        0.92019349137807        1.17793076903803
H           -4.06483377639731        0.42974911793204        0.87260525574134
H           -3.34169223665389        1.72855426220730        1.76662877456204
N            0.73057207088326        2.77218588018392        0.19834517908990
H            0.19602444260510        3.45401246616569        0.71861283461168
H            1.71824118945754        2.81869806013984        0.40739700792116
H            4.28708820843495       -1.13682173965183        1.32960332438486
H            2.70740024999204       -2.94747642624417        1.47567470621408
H            0.65635700461745       -3.04390420619796        0.24966955302812
H           -1.08121384111469       -2.11810600505560       -1.15410183386751
