24
 energy: -43.740613164948 gnorm: 0.000981904572 xtb: 6.6.1 (8d0f1dd)
N           -4.98013561156857       -1.12641027791239        0.06029126127480
C           -3.84769114027224       -0.94059654325448        0.07304945974639
C           -2.45161730520308       -0.71726980601163        0.08943308774345
C           -1.67745072572486       -1.73997550413791        0.65572035820660
C           -0.30944971734454       -1.88840460454342        0.64831954589876
C            0.63502160587857       -0.94824397719831        0.21736431812615
N            1.81289595206347       -1.33209884879939       -0.20926127768985
C            2.98432570741508       -0.74076335938257       -0.29354078609983
C            3.40721904316379        0.30072028877122        0.58073562164644
C            2.48393194336701        1.12112027557941        1.17540776852843
N            1.23314129623440        1.27967324549216        0.77569645626392
C            0.38192276729308        0.50455843854098        0.19310379239354
C           -0.76750703165086        1.05156629634838       -0.46125713991322
C           -0.59713523799935        2.32892614598678       -1.03666227400537
N           -0.44608876664879        3.35277770916897       -1.53297127200109
C           -2.02186480310360        0.47786045157902       -0.50450553943892
H           -2.79365206528406        1.06510125899394       -0.99061125290434
H            2.78753622678362        1.82439733118161        1.94151905554519
H            4.46229386882068        0.45136875620695        0.74532643526231
N            3.86188316487026       -1.28058664303419       -1.16321381329440
H            4.80753854194428       -0.95082704061373       -1.21076517842742
H            3.57806087353723       -2.06113305152295       -1.72871035881130
H            0.09246041061594       -2.84418837162627        0.95618856495539
H           -2.24545045958589       -2.57143456051268        1.05725063629336
