28
 energy: -51.410507960756 gnorm: 0.000909706899 xtb: 6.6.1 (8d0f1dd)
N            2.60314064908414        3.79911660978093       -1.50926804043287
C            2.27383072817523        2.79613288811220       -1.05943328865477
C            1.84821997496675        1.56907958181813       -0.50204474751613
C            2.73458897146330        0.53637037132602       -0.48363908838156
C            2.54716200040516       -0.74115709836412        0.12718202596469
C            3.72774508813220       -1.44986173751966        0.43337996341961
N            4.67158571161517       -2.05162151950657        0.69267687860152
C            1.34874517699344       -1.36911636007378        0.40833106625589
N            1.33561933054186       -2.53208185136105        1.09251346575430
H            2.20172850281685       -2.94633585282231        1.39784741660442
H            0.48178026130120       -3.04931511992731        1.20028242628223
C            0.03637305398027       -0.87488082273805       -0.03666293766045
C           -0.83025251231958       -1.74136148222010       -0.60953869892687
N           -2.05862248732408       -1.50220268724612       -1.13697595834115
C           -2.89718030686254       -0.62525697081427       -0.72116165178170
N           -4.04431460552025       -0.45222941562759       -1.41232626341929
H           -4.21153156346012       -1.05315443089478       -2.20070622630024
H           -4.80750020895073        0.07498482772166       -1.02544967484222
C           -2.74816032778335        0.21310073637501        0.49698233002956
C           -3.94377956655692        0.51186687031601        1.18559993429323
N           -4.94239013877012        0.73196563876800        1.70680607251428
C           -1.57831335595920        0.73331180104577        0.91550124326461
C           -0.28259284365077        0.52472048466168        0.27775262671013
C            0.53169758825373        1.58135616284353        0.08561778617116
H            0.15312424823527        2.56445540053835        0.33975921797103
H           -1.59144838695142        1.39044060571703        1.77935908897130
H           -0.49781738808194       -2.75249552768354       -0.82054210617294
H            3.72584651503129        0.71807299129453       -0.88166701167817
