31
 energy: -53.766566206786 gnorm: 0.000830611188 xtb: 6.6.1 (8d0f1dd)
N           -2.73248588277440       -3.56713804746630        0.95513110711642
C           -2.19620789265645       -2.61559265606691        0.59118411616970
C           -1.55753166335592       -1.44983730139350        0.13884000959733
C           -0.32185622710103       -1.64606883265420       -0.58474592402989
C            0.69013345654259       -0.77149795599250       -0.66295912541502
C            1.88734087270021       -1.00973937231313       -1.48570528510936
N            3.09059062125225       -0.98030698381001       -1.09619223479666
C            3.51851911488553       -0.62778242551567        0.14934101501955
N            4.71592434176672       -1.20951413118325        0.48885407856787
H            4.95586641973429       -2.04757811515695       -0.01290388491726
H            5.00718510183773       -1.15929194421006        1.44921283187065
C            2.98102573158049        0.38359976487329        0.89600846817140
C            1.76853662082263        1.08601343791727        0.62216731089421
N            1.68055661005216        2.37184054923111        1.16287873384919
H            2.34989668624609        2.55145062674050        1.89642489009981
H            0.74914373348537        2.67547486586346        1.40944883242809
C            0.71445084872771        0.57407253528590       -0.08985231545954
C           -0.43875171873973        1.40289981582887       -0.45305347477394
N           -0.15936513114008        2.59126271045294       -1.03612145213708
H           -0.90218709470729        3.21405102124411       -1.30789805620462
H            0.79229738822719        2.91141188938863       -1.06907057155638
C           -1.74342198014535        1.01622219131010       -0.23500309669918
C           -2.74895960779258        1.95299405031484       -0.52617866670098
N           -3.56146333354149        2.73647043938224       -0.75614974164611
C           -2.19979004377845       -0.24659118337571        0.32454136544376
N           -3.37316166220321       -0.19219636734597        1.02439717804184
H           -3.96069303201438        0.61799178454374        0.91426575921754
H           -3.83108556434284       -1.06359933339589        1.23939551517404
H            3.57090305867788        0.74934473293756        1.72714173962548
H            1.73566406836785       -1.21174800076331       -2.54370398785454
H           -0.20409164161548       -2.61704759747696       -1.04986277477763
