26
 energy: -41.578887670198 gnorm: 0.000295325720 xtb: 6.6.1 (8d0f1dd)
N           -2.65115026978030       -2.61561228364592        0.57037502890572
C           -1.99880859608104       -1.43658522830180        0.30718971457790
C           -2.80905304573224       -0.36257222295346       -0.08518271088268
C           -2.42209562508349        0.93873908924550       -0.36227140912657
C           -1.14715348364719        1.50321045337087       -0.17630910971186
C            0.07660823538050        0.92746311926457        0.11521255968884
C            1.10037572295796        1.79035252430789        0.60345862760383
C            2.43244303731249        1.54662026424978        0.83453197184982
N            3.22799390115242        0.56896392273701        0.41618990598561
C            2.73996058057110       -0.44672709581472       -0.29485851639704
N            1.53763536450227       -0.98568943129160       -0.28810243409752
C            0.35063129738226       -0.50307186101634        0.04372879027792
C           -0.61039930304506       -1.48498899015079        0.31480845882643
H           -0.17992906335920       -2.46670435692370        0.47575026853415
N            3.65679419853913       -1.09385922499493       -1.06112633829091
H            3.41208913627073       -1.99237334832815       -1.43729424004818
H            4.62347317274059       -0.86791887711329       -0.90814053611541
H            2.97979052920069        2.31651060944151        1.37343840363936
H            0.74693078338596        2.76599134480510        0.91784624629308
H           -1.13677751738819        2.58732933745498       -0.23535586022179
N           -3.41719474427877        1.82259170963465       -0.70440266766847
H           -4.29784650380693        1.44878233391775       -1.01324064462192
H           -3.14781862405978        2.70788714705956       -1.09721629228431
H           -3.86865664211541       -0.57508706800963       -0.16795249817420
H           -2.13012215171272       -3.35238899088489        1.01322677448993
H           -3.63701110260486       -2.58463145446072        0.76347514206863
