25
 energy: -47.479730755201 gnorm: 0.000415449316 xtb: 6.6.1 (8d0f1dd)
N           -4.86906264986329       -0.58312525174017        0.76533891162945
C           -3.73682789407008       -0.57706736908877        0.56684913601597
C           -2.34708488240866       -0.55379059865824        0.32278334268437
C           -1.66371545353279       -1.71123851686412        0.70601291404674
C           -0.36733639345350       -2.09454640315992        0.44378859477084
C            0.61385685656205       -1.30177569649528       -0.15477302452120
N            1.59143710457580       -1.83323995737183       -0.85196818182027
C            2.78336946854989       -1.40404902335936       -1.16638909365625
N            3.54661838006605       -0.56030859634326       -0.50928019425305
C            2.97722781446753        0.27960049437675        0.37024151535103
N            1.73385339097018        0.72671493015765        0.34252087396664
C            0.62001550854905        0.17336206991506       -0.06999821674385
C           -0.48630622097116        0.98274261949804       -0.38092038791327
C           -0.18882674313897        2.31870379340338       -0.71992141691667
N            0.02774120595767        3.40744084857624       -1.01726526360955
C           -1.85100572271434        0.63024765530722       -0.29095651357901
N           -2.75663608878881        1.53197350894446       -0.72536441041368
H           -2.44785415067121        2.42936553076505       -1.06124650616514
H           -3.73782230229911        1.38288037644893       -0.55670514662886
N            3.79856789687481        0.83981680611131        1.27584971690407
H            4.78512765456028        0.67708714755022        1.17524093581910
H            3.47346118471971        1.62998078145322        1.80502823865244
H            3.25201848748913       -1.91429995788988       -2.00146379480311
H           -0.09770650153406       -3.12371517060038        0.63604785526898
H           -2.28998937670086       -2.45749179363603        1.18203242351444
