25
 energy: -48.251521668774 gnorm: 0.000659271266 xtb: 6.6.1 (8d0f1dd)
N           -1.72200077759801       -2.57734878998526       -1.89239120076410
C           -1.80571419216890       -1.66023670948672       -1.20823627616769
C           -1.92435495598052       -0.49185643656989       -0.41955205543120
C           -3.19088650357435        0.07341626336168       -0.36022071877609
N           -3.62596835371654        1.06351447505306        0.40926381781420
C           -2.79963026302640        1.86750609817566        1.03003141581480
N           -1.57939304832732        2.16807361090341        0.66735297681573
C           -0.64268465639654        1.50884711645515        0.05706059893469
C            0.39116089996865        2.20933044260140       -0.61616951857690
C            1.68799727860535        1.81154441724173       -0.74144690425046
C            2.34296694759685        0.69554893616662       -0.17324982313669
C            3.75338838321273        0.73841576626937       -0.23472595267405
N            4.90097052850111        0.76223443733259       -0.27766389263223
C            1.78528113709806       -0.43985776527594        0.43562538070311
N            2.60519042867491       -1.33302584322327        1.01803352784019
H            3.60288485513688       -1.19698318222221        0.98106301342540
H            2.24590969219195       -2.21199647901304        1.35438911373531
C            0.38848319375601       -0.78102194098741        0.36925394268361
C            0.08377802124891       -2.12748229284395        0.68466288459686
N           -0.11482347394287       -3.20546762488961        1.02536412425404
C           -0.67417381727821        0.04544915939167        0.06779604622675
H            2.35283971744276        2.49466243477833       -1.25697774671622
H            0.11716785427321        3.18564641701444       -0.99059310224408
H           -3.21023285942784        2.46093464238102        1.83931660271977
H           -3.97630754787007       -0.42762033412908       -0.91659626939533
