30
 energy: -54.051291843288 gnorm: 0.000685408287 xtb: 6.6.1 (8d0f1dd)
N            4.16265379437049        2.44835563848757        1.22422633595247
C            3.41554583012442        1.65164686038071        0.84916239826600
C            2.54969818349328        0.65436152599746        0.40219861902502
C            1.23258835533399        0.99053582112938        0.13566503537171
C            0.10949897028382        0.22634975317309       -0.20594282102475
C           -1.03962018048709        0.97563846759826       -0.55755234541928
N           -0.85014590885749        2.16876027706755       -1.18333978328079
H           -1.61200327418278        2.82584228886965       -1.22931585205632
H            0.07970690066719        2.50378287450035       -1.36256575839055
C           -2.39689954422881        0.68876266471376       -0.22576803573067
C           -3.35143227182730        1.68986891298651       -0.42451068771861
N           -4.16056613203290        2.49768810598423       -0.58369356624378
C           -2.83484406733714       -0.47336358419039        0.44706465171148
N           -2.29025253942558       -1.66985400894125        0.32109815695772
C           -1.11372688079849       -2.00791979639609       -0.14509744260430
N           -1.07676684940088       -3.25518720304632       -0.65432157119594
H           -0.23105636113680       -3.65047060980614       -1.02192423640440
H           -1.91933852281019       -3.80318879865287       -0.62379603353290
C            0.12335378219936       -1.25809001597869       -0.10205026116042
C            1.25528193885827       -2.00830477693093        0.05724774155036
N            2.56710496403883       -1.74811182345212       -0.11723743090025
C            3.15964399096732       -0.60554355909607       -0.01795046018855
N            4.46357293383106       -0.55037058234267       -0.34956186085510
H            4.92852523845756       -1.39847462532178       -0.62259498949808
H            5.00220961670662        0.27318150049822       -0.14084079301312
H            1.12248959070275       -3.05484825917248        0.32129017986131
N           -3.97610446576342       -0.42784744365618        1.16593722721175
H           -4.35745657824521       -1.28798966911817        1.51797926454337
H           -4.54848097020210        0.39862422379174        1.14479567741874
H            1.03533782749985        2.04890960562241        0.29366126014848
