27
 energy: -51.709728988707 gnorm: 0.000469514794 xtb: 6.6.1 (8d0f1dd)
N           -4.85437677846846       -1.51409512308342        0.48764659857150
C           -3.72968110396740       -1.29145472756480        0.40821743712552
C           -2.35592892942866       -1.00496541412472        0.29255157380039
C           -1.47228444053735       -1.81215082668572        1.00249364190313
N           -0.19306958487785       -1.95622743069286        0.78908429590386
C            0.66531735478724       -1.19011842415065        0.17423820687729
N            1.69853496401679       -1.74162079811106       -0.42571600543668
C            2.93926571843667       -1.35069740690590       -0.51120464312548
C            3.53431339921759       -0.34394921220757        0.32092356980623
C            2.86007196136944        0.72545245025052        0.82213760286656
C            1.50527530177694        1.09130380070576        0.59471533930787
C            1.17243430459335        2.41300224707370        0.96977903370564
N            0.92287929216851        3.47096147144383        1.33805202761440
C            0.47866205310840        0.27055086116979        0.13175509896988
C           -0.72946263555077        0.77161304097304       -0.41873870517384
C           -0.63147508868308        2.02178333275494       -1.06641825416005
N           -0.58398920916067        3.00616670071056       -1.65796193954194
C           -1.99104064070533        0.14266486871898       -0.47975613414480
N           -2.96413379504068        0.73083581777691       -1.20639395015257
H           -3.90877537559677        0.38793392278530       -1.14434569928472
H           -2.79900977609253        1.62640094581280       -1.63668761670248
H            3.43753232515253        1.46067052345894        1.36985878117584
H            4.60329023433929       -0.39958698356785        0.46878741643227
N            3.72485477993378       -2.00121068775333       -1.38864242387241
H            3.32716584241511       -2.73517751983069       -1.94809049150365
H            4.71041455262844       -1.81925984353234       -1.43505835431618
H           -1.88468021353360       -2.49274448252270        1.73971366975446
