28
 energy: -45.812332780411 gnorm: 0.000471892478 xtb: 6.6.1 (8d0f1dd)
N           -4.52012244944224        0.07092146618412       -0.72753381207126
C           -3.45186705024046        0.24920430887044       -0.33777080475617
C           -2.13851578610853        0.41981382289508        0.13482190230340
C           -1.96424596451588        1.40386998335711        1.17774345366294
C           -0.84823603981373        2.10948837498346        1.43810602123370
C            0.40216676638539        1.99102730185036        0.74059799808054
C            0.86969931283536        0.87534167769532        0.15757964819233
C            2.14505846181015        0.84665547157469       -0.61128762514389
N            3.16778168073938        0.14584823314782       -0.29224828684922
C            3.18239450252317       -0.85510737198516        0.61180652126457
C            2.17257567591953       -1.71219503865198        0.89920744719313
C            0.81321694838526       -1.60064596152222        0.45595712573199
N            0.08188627898684       -2.79368401370123        0.40427038336436
H            0.49810021758749       -3.54294320610939        0.93786477494824
H           -0.90560887323916       -2.69624286219065        0.59608044153938
C            0.21103393399282       -0.42010953297062        0.12118897076782
C           -1.16043739004570       -0.37536303469197       -0.41323507778795
N           -1.39669136733815       -1.14783727605526       -1.50524606723096
H           -0.75075453205667       -1.88811865406379       -1.71914122203833
H           -2.32938686757872       -1.19811151835413       -1.88229463884800
H            2.41375700893380       -2.59949985168849        1.47071525551793
H            4.16926067466161       -1.04473805344545        1.01592383951250
N            2.16946808787268        1.59439056085210       -1.73916769162583
H            3.01662019409224        1.61160112447459       -2.28079597005648
H            1.49859014073404        2.33179574772359       -1.86121587034197
H            1.02099934549953        2.88039526751288        0.71955768510199
H           -0.90109498111248        2.89120199256397        2.18434491923892
H           -2.86939738686904        1.65178305634227        1.71875074479553
