29
 energy: -50.328515977866 gnorm: 0.000964153279 xtb: 6.6.1 (8d0f1dd)
N            4.06471688335585        2.62702561620155       -1.47416338895014
C            3.41583469419444        1.80819780703237       -0.99608563767654
C            2.60831979771367        0.81007956704366       -0.41490099731256
C            3.10108323012102       -0.46852542005048       -0.36319145204701
N            2.61619749234518       -1.46011959099871        0.39814374188776
C            1.39011841305196       -1.62144016504105        0.74229425372499
N            1.09819879525266       -2.42317303230449        1.78537320300410
H            0.15177106824606       -2.71206920604151        1.95222930664232
H            1.84809502450838       -2.83133462765550        2.31655800319390
C            0.21909555260282       -0.97632203243678        0.07708530915411
C           -0.75927345589246       -1.71567234940069       -0.49890428668707
N           -0.63253158429638       -3.10315364195837       -0.57399402862487
H           -1.20451354396148       -3.53670428063788       -1.28279990889059
H            0.31588503334944       -3.44900389247274       -0.57287291144453
C           -1.97455270644009       -1.18260909272880       -1.06213025660946
C           -2.65650387485827       -0.08379495421422       -0.65928452652881
N           -3.88623956623954        0.20777264100094       -1.19592800643191
H           -4.27605249728529        1.12293710144526       -1.04942064873706
H           -4.15657290973708       -0.26780303393289       -2.03887161000834
C           -2.23267742904316        0.80418184519308        0.42722452035882
C           -3.27001501854956        1.52926775927807        1.06153324142698
N           -4.11112365747948        2.12284353559453        1.56863352823309
C           -0.96873704057281        1.06306236586717        0.82728173892813
C            0.24108042531889        0.46537153305804        0.29260281100458
C            1.34393584729934        1.23870362486969        0.11875213368678
H            1.24895257849958        2.30200591246993        0.30375602320158
H           -0.83478382085074        1.81609851148644        1.59708123390035
H           -2.44105865966236       -1.79294962284421       -1.82684103919349
H            4.05479695391267       -0.69349283862228       -0.82453253350107
