34
 energy: -61.750716743084 gnorm: 0.000606665677 xtb: 6.6.1 (8d0f1dd)
N           -3.29675540888627       -3.00811094285404       -2.08029485071171
C           -2.73117457176124       -2.22193980759101       -1.45783175699573
C           -2.06255045004962       -1.26367953258173       -0.67930014801732
C           -0.91016797129687       -1.73369440662208        0.04911116004549
C            0.13075674287899       -0.98992036545931        0.45258522781411
C            1.21484985955396       -1.56880842336882        1.27940170118693
N            2.46055040898386       -1.57598393119046        0.96178470409027
C            3.01724451948011       -0.92376536383537       -0.08074554929873
N            4.10278823479865       -1.54827175460071       -0.60529270394084
H            4.45717365476520       -2.35200199058655       -0.11793648687590
H            4.71959171275101       -1.03836079332011       -1.21444280659178
C            2.63836988276384        0.33441937936700       -0.53871132611459
C            3.52398598956794        0.98607410408204       -1.40782465627646
N            4.25908320047524        1.52142201683834       -2.11613982522077
C            1.44171157314410        1.05087413942197       -0.16263361165952
N            1.50511153588908        2.43770546336710       -0.30298537024394
H            0.63866674935291        2.88962362384970       -0.55685409970163
H            2.28366961678153        2.75516951888140       -0.86390022364095
C            0.29011982341787        0.45435815640915        0.27239830791623
C           -0.84880369762997        1.24655081250883        0.73937628808062
N           -0.57266765213254        2.22154318480251        1.63587487492470
H            0.38531487992800        2.47606960429414        1.80224402304868
H           -1.30570533874265        2.82785748565428        1.96634143387809
C           -2.14818166875105        1.02461115037441        0.33025284056378
C           -3.12442958407252        1.92798484654012        0.78290878031172
N           -3.91270336351518        2.67986258808560        1.15706731585697
C           -2.62072225700761       -0.00675880433134       -0.57720933328298
N           -3.72940765748487        0.30841182174056       -1.30385186406429
H           -4.20205397413058       -0.43001177429621       -1.79915943231522
H           -4.26573461386314        1.12193332336199       -1.05306368168844
N            0.84429651570132       -2.09994857298940        2.45898270532050
H           -0.12696902377178       -2.26588321609319        2.65271952376689
H            1.54509687312081       -2.51114598897978        3.05172435211611
H           -0.88190544255974       -2.80267895328088        0.22647366621925
