26
 energy: -42.364807710007 gnorm: 0.000574921457 xtb: 6.6.1 (8d0f1dd)
N           -4.82505889743313       -0.89288524132213        0.99951695334925
C           -3.80417463027394       -0.57012830077540        0.58483431234390
C           -2.55104369666645       -0.16162661854975        0.07184742527684
C           -2.61274878901236        0.88594191441132       -0.93730151763364
C           -1.61849941381469        1.72143973709478       -1.26562239104005
C           -0.31251905097822        1.78282656409789       -0.65709477429378
C            0.36702139448422        0.78815921631950       -0.05650064412276
C            1.64371148623822        1.10898603535132        0.61907768122134
N            1.62864744274143        2.25818430669379        1.36599741038523
H            2.38421677161430        2.41144777317157        2.01302836501563
H            0.73304981580163        2.63489661067364        1.62594753475952
C            2.78637387022579        0.40524394141166        0.44952642495102
C            2.90888573039778       -0.80692805655243       -0.32774604896124
N            2.02247255492615       -1.74241682163240       -0.44962484440137
C            0.75195486435086       -1.67284264966146       -0.00029354201687
C           -0.07557040969019       -0.59963463064599        0.10494087295946
C           -1.45240160151419       -0.81952844898179        0.50787906613871
H           -1.60617709786893       -1.62972932614142        1.21433428510348
H            0.32315748636397       -2.65698922950284        0.16345028007342
N            4.11244771677607       -1.02639561813442       -0.92827342486875
H            4.91559268337022       -0.49543743808916       -0.64339380585450
H            4.26284930999197       -1.94163202049406       -1.31702417680825
H            3.69492338385982        0.78714862893099        0.89993930585193
H            0.17296497154091        2.74929763760774       -0.72409927543929
H           -1.81894782863317        2.48853830941243       -2.00301940496949
H           -3.57816370619289        0.99958917810821       -1.41390201041599
