29
 energy: -50.352421531811 gnorm: 0.000557242210 xtb: 6.6.1 (8d0f1dd)
N           -5.78178180119901       -0.49902204671030       -0.10556900355789
C           -4.63591587685496       -0.42594777049212       -0.01648264821527
C           -3.23982973925859       -0.31353926639185        0.08629248613579
C           -2.57704547735436       -1.38772622861584        0.71119276732668
C           -1.24547136599848       -1.65836271474199        0.80141898896105
C           -0.12071894007373       -0.90401469228769        0.35562137530014
C            1.03956291373550       -1.60685591667438        0.08983545533802
C            2.31347486407670       -1.17653101678171       -0.34368904608976
N            3.12681239452338       -2.12777345463064       -0.86518742444405
H            2.81937400032542       -3.08008194043196       -0.93438173353417
H            4.06833967885578       -1.89535591780631       -1.12994230872182
C            2.83629915307789        0.11502411361618       -0.19196124517845
C            4.16207554965449        0.36470357973199       -0.55083721851740
N            5.25326146869196        0.58604160322712       -0.85336816392289
C            2.12194875963847        1.15888408241129        0.49499757942023
N            0.83734839634048        1.32166058536801        0.53084804735513
C           -0.19636463015605        0.54114386813684        0.19379780735366
C           -1.31031896544066        1.23999306725082       -0.24342289811050
C           -2.64958975199178        0.86606212757401       -0.41405808259906
N           -3.46015013245446        1.75796588503871       -1.03802538214423
H           -4.45293640836044        1.59854041105391       -1.06458830588622
H           -3.10717955691664        2.66078505197087       -1.29845671733176
H           -1.09671869847572        2.27865514987906       -0.47054733603098
N            2.86362072763296        2.10278120470982        1.12155018399409
H            3.85573604095672        2.14617793739535        0.96546085740134
H            2.38904143187711        2.90213362624513        1.50257355935692
H            0.93796473535666       -2.68634231342988        0.12982350034040
H           -0.99213591066850       -2.62196455230252        1.22816786409893
H           -3.24354063494034       -2.14547828621115        1.10860521570465
