29
 energy: -50.340071489740 gnorm: 0.000406869672 xtb: 6.6.1 (8d0f1dd)
N           -4.81305999753900       -0.95128813684807        0.13446132330052
C           -3.67368934079727       -0.77751461815566        0.09026949106089
C           -2.28726191285551       -0.57338442362716        0.05283444486680
C           -1.47311877908871       -1.71623180541003        0.27583212340286
N           -2.12994384134826       -2.87005267483375        0.56008421471528
H           -1.61959591235283       -3.72286866133974        0.69694459118107
H           -3.13292526758123       -2.88389649669507        0.62153231328049
C           -0.09356942464322       -1.79984346534047        0.14921061212939
C            0.92096620859275       -0.84120047198192        0.02421627332870
C            2.19086925036660       -1.36248428621430       -0.28035678515814
C            3.46480577177918       -0.79295039086467       -0.26768693850275
N            3.88363612223835        0.32195139513840        0.34451455761295
C            3.07862989391594        1.24260915402122        0.81212281347454
C            1.71388456217642        1.43460979518031        0.65929623646024
C            0.70308126359032        0.58512216116191        0.17517944622121
C           -0.52665005486840        1.22370705812877       -0.13451374121909
C           -0.42957732215706        2.61414496556392       -0.34876689454217
N           -0.40739978118355        3.74631854640421       -0.56099729198536
C           -1.85001001488681        0.72956683454863       -0.25590915434081
N           -2.80375453464797        1.60997089645349       -0.64093938412743
H           -2.57397840473409        2.57969401053660       -0.77788787039680
H           -3.77066706810503        1.33230251180534       -0.63513526393061
H            1.37112122585589        2.41004618384731        0.98269915173269
H            3.61040335485512        2.02790510938138        1.34272248031496
N            4.48032373061955       -1.48620421463166       -0.83786410987324
H            5.40911074183521       -1.11726261625472       -0.74129136416083
H            4.33780861434645       -2.38722419850247       -1.25431912272663
H            2.18086348079036       -2.39671052503389       -0.60838405450640
H            0.27421784352815       -2.81959489303758        0.19707041468448
