27
 energy: -51.713592489228 gnorm: 0.000657816429 xtb: 6.6.1 (8d0f1dd)
N           -0.46792971620375       -3.86607121697439        0.90914933996990
C           -0.71924071098366       -2.76108957361372        0.72201179697315
C           -1.01094966020728       -1.40366527293648        0.46882195507763
C           -2.34705960978816       -1.02811266649030        0.60063693250832
C           -2.95914006274445        0.15248465244338        0.20236343835030
C           -4.36075691837048        0.23945679443914        0.25990767927179
N           -5.50479573814024        0.35151560566445        0.28719387743302
C           -2.26212833086439        1.26137722311205       -0.38948933350774
N           -1.01442943677373        1.56698646594875       -0.13944430232206
C           -0.02474085909894        0.87108660638475        0.35644403156122
N            0.87858764671237        1.51101558636383        1.06822531332722
C            2.16283708189546        1.37323319318534        1.14583350286890
C            2.98535607757519        0.63975009533395        0.27934283382059
C            4.35663718219233        0.95197517480589        0.25915934078132
N            5.47942521127601        1.19513575783758        0.21779531805397
C            2.55333214214292       -0.49781318776712       -0.45722466064277
N            3.47048791966149       -1.13547119844297       -1.21565215434048
H            4.42561721178550       -0.81700336957035       -1.22316987178055
H            3.25905622955773       -2.03296823488457       -1.61591035317802
C            1.28812526768810       -1.10412046369636       -0.33318612511671
C            0.10361067926268       -0.57860401126062        0.15014305671770
H            1.23574874902883       -2.12439966216105       -0.69754054439601
H            2.64082596017196        1.97055544442422        1.91539871333157
N           -2.94337215803513        2.09772404841545       -1.19176878535177
H           -3.94232911890058        2.01408345747981       -1.27852491329124
H           -2.48286398025878        2.92718957512133       -1.52423106331888
H           -3.01447737978024       -1.80280767636320        0.96327964269847
