30
 energy: -54.064966808169 gnorm: 0.000793096009 xtb: 6.6.1 (8d0f1dd)
N           -3.68431370690965       -2.91743572398310        1.17394567238053
C           -2.85843698497845       -2.20496129274437        0.80871632730142
C           -1.85256358181427       -1.31843268559723        0.37459439316102
C           -2.32427935669802       -0.09540066445561       -0.26930754263079
N           -3.61441502901288       -0.12923273972576       -0.68314838040963
H           -4.01211413792711        0.66816450811994       -1.14894755311699
H           -4.18609341618353       -0.93695516230991       -0.50850303291494
C           -1.56137867618662        1.02485638140005       -0.50501182425180
C           -2.16866840104653        2.07985332012812       -1.20087081396188
N           -2.66374623061851        2.94880647484790       -1.77473521122202
C           -0.21914549276988        1.29599171423142        0.01891081016409
N            0.01153526487810        2.63945894663861        0.31751744495578
H            0.97823689025269        2.92794923978365        0.29236775015902
H           -0.60281168602815        3.28447101213802       -0.15881287599939
C            0.72844437388110        0.36491570846583        0.25475720734786
C            1.99047018366713        0.73328252399584        0.95061778258307
N            3.17704844448518        0.52443188994628        0.49361877519858
C            3.43515972233481       -0.29971720386594       -0.55457922475649
N            2.89709340699776       -1.46688477156653       -0.76740866876564
C            1.72139238579992       -1.85978337698331       -0.26085855456793
C            0.63342609159217       -1.09554776299129        0.09665552465781
C           -0.56677940729682       -1.77606783679614        0.43732018190092
H           -0.45020469780403       -2.81149713456365        0.74363744782788
H            1.59775683602942       -2.93784974429941       -0.28010561567850
N            4.47731540017342        0.07158231525761       -1.33852119067188
H            4.86057970253290       -0.62942126637108       -1.94883386844078
H            5.08309272101335        0.79850309449442       -1.00013071985835
N            1.85899467437555        1.33426871672741        2.14541489368080
H            0.95296379135040        1.61450343186080        2.47435250004414
H            2.68003294770182        1.54323752311227        2.68703009678858
