27
 energy: -50.926041603576 gnorm: 0.000680799848 xtb: 6.6.1 (8d0f1dd)
N            5.59291150561286        0.60533768655422       -0.41905725065621
C            4.45167763291255        0.45978103925765       -0.40526396384489
C            3.06028092868314        0.26302472096304       -0.36868286833670
C            2.56545291996261       -0.74398130886188        0.51409525298254
C            1.27725112304215       -1.28587100156704        0.47237080050893
C            0.15111073191432       -0.76016437561325       -0.14906992318803
N           -0.89058536014698       -1.51159640135205       -0.43366312560064
C           -2.15347991492104       -1.17687299861879       -0.60794291472760
N           -2.90675050302519       -2.05547162815627       -1.30539179161363
H           -3.90883627983965       -1.97218752009380       -1.29742215526686
H           -2.48382412026093       -2.91769837919473       -1.60061836378322
C           -2.79305852411191       -0.06132562383953        0.00354489615928
C           -4.18090596825006       -0.08508221118322        0.16746693374768
N           -5.32531080872597       -0.10593641494068        0.30106386692836
C           -2.06054363349608        1.05792148665851        0.46912699895189
N           -0.86071722027263        1.40938120875974        0.03724697441681
C            0.10778807142825        0.68948059628472       -0.45814511571882
N            1.02020345326654        1.25662430655342       -1.22012554070596
C            2.29213332457282        0.99753022463557       -1.27951683195974
H            2.81965831198057        1.51422940272821       -2.07505891555750
N           -2.64596574016493        1.91972613893036        1.33066478136670
H           -2.18441425439856        2.79599043668563        1.50299756598155
H           -3.63077558424839        1.83895903896340        1.51916779944913
H            1.13091338122824       -2.22400577824442        0.99352147312103
N            3.45880541611159       -1.31452700480255        1.35708537074028
H            3.20267178994497       -2.13214882685366        1.88102779184881
H            4.43066925800720       -1.05868564264832        1.30487960745155
