25
 energy: -42.644179839098 gnorm: 0.000916959033 xtb: 6.6.1 (8d0f1dd)
N            3.99320928589782        1.28628647535842       -0.77068593674327
C            2.97981211333451        0.81322714140860       -0.49504764194671
C            1.75563290943334        0.22299914614649       -0.14924713420181
C            0.59483270604936        0.92905217590867       -0.34303772074210
N            0.61481577517244        2.14905454429193       -0.92581685455046
H            1.48153123320633        2.53837073442012       -1.25731281417871
H           -0.23734246942717        2.66687290632017       -1.04324478953160
C           -0.72662085458722        0.43906741926220        0.08443207991175
C           -1.55792720283302        1.27316559835399        0.74656922846097
N           -2.78507584678960        0.99738358233354        1.28221284020023
C           -3.63310309685808        0.20192373335305        0.76600952480294
C           -3.53555561323969       -0.53992497973590       -0.47913546973261
C           -2.39885379933418       -1.04841176944088       -0.97165790487961
C           -1.07433063622754       -0.91534633340087       -0.36146808555207
C           -0.22851558054059       -1.96901814351058       -0.33014591938439
N            0.97801740423739       -2.07358821774314        0.27926677008308
C            1.82470890318428       -1.11992665048613        0.44255494924047
N            2.93315417399571       -1.38184163172333        1.18663708819101
H            3.73927099721595       -0.78673729140596        1.09657570021016
H            3.08042470751649       -2.34165670396378        1.44992264794642
H           -0.57625268009383       -2.92101471747386       -0.71711608251127
H           -2.44029345356898       -1.64613002717877       -1.87645699418232
H           -4.47220589009124       -0.74048769364562       -0.98359766873125
H           -4.56884660266085        0.10477786517397        1.30925709621704
H           -1.20492435969201        2.25876335117849        1.03233949130473
