30
 energy: -55.643079376879 gnorm: 0.000672220119 xtb: 6.6.1 (8d0f1dd)
N           -4.03444405746950       -3.32844199037284       -0.00089323226801
C           -3.35969127956616       -2.39755065912751       -0.00027494771936
C           -2.54946784415952       -1.24265478207192        0.00000523140743
C           -1.14413426088294       -1.51219149655313       -0.00075583719123
C           -0.01524290638637       -0.73881052761523       -0.00055089846169
C            1.18613266906905       -1.52615551599710       -0.00046622483356
C            2.51918502176071       -1.25501105765094       -0.00019233514308
C            3.36527207631410       -2.38767067316858       -0.00138999961985
N            4.06569287805012       -3.29861584598467        0.00076833877536
C            3.20867697110870        0.03116594081068       -0.00012529328329
C            2.54936280044601        1.24273827985590       -0.00071735649490
C            3.35957622192959        2.39762711811661       -0.00197018727053
N            4.03431982966974        3.32845086433331       -0.00243866654122
C            1.14403008040652        1.51226672029464       -0.00081902562202
C            0.01513826867470        0.73888069007023       -0.00050498501321
C           -1.18623527925562        1.52623009653521       -0.00056642121574
C           -2.51928753089593        1.25509328158356        0.00056820566728
C           -3.36536169889198        2.38775783814787        0.00107675424596
N           -4.06579152544483        3.29865377814069        0.00001183002775
C           -3.20877928388850       -0.03108198051326        0.00155423947463
N           -4.55445848503027        0.01350405927304        0.00414075995164
H           -5.08375340037140       -0.84321515817499        0.00383440809060
H           -5.04046275383513        0.89487735424560        0.00372733193404
H           -0.98499439750896        2.59358977602222       -0.00163103016204
H            0.96929597672142        2.58301954147846       -0.00122864674402
N            4.55435854531687       -0.01338951738705        0.00023951192545
H            5.04039681803099       -0.89474450247227        0.00059006575267
H            5.08362127888016        0.84335121568737        0.00069380873862
H            0.98488894762794       -2.59351811294746       -0.00020290970938
H           -0.96939583521955       -2.58294453475844       -0.00122809909828
