30
 energy: -50.045298744020 gnorm: 0.000638664585 xtb: 6.6.1 (8d0f1dd)
N           -4.07893281056179       -2.08277068464169        0.79545937510090
C           -3.13074350382225       -1.52184178517797        0.46777615108405
C           -1.94776432315760       -0.85981387495877        0.08285465393400
C           -2.11092346012329        0.42823077481793       -0.51313205214314
C           -1.19330093174646        1.43163354980970       -0.57238951243766
C           -1.60573810594983        2.64691013214483       -1.15869259226102
N           -1.91363632545337        3.64479468034541       -1.63859959211375
C            0.14658504229446        1.42401384308600        0.00160990516054
N            0.62532820717366        2.66147470988895        0.44879181478276
H            1.62771414800697        2.76702580572149        0.37438267345302
H            0.13011141123428        3.45391391701654        0.06331406937244
C            0.89274615710761        0.30548011449500        0.15818597629401
C            2.19140398750275        0.34878772657714        0.86771137908790
N            2.11726942987517        0.78279472810391        2.16763265369423
H            1.36074139793128        1.40375236580913        2.40406128024638
H            2.98174843695101        0.92638609094261        2.66340637324032
C            3.35663480425020       -0.04752069540779        0.30091743910094
C            3.50885147532296       -0.71768956052132       -0.94929881652534
C            2.59742657122080       -1.50698485227139       -1.56251274631016
C            1.29156196249978       -1.81607173611445       -1.06992763153833
C            0.51947555864736       -1.03297791493345       -0.28665297281212
C           -0.75591376030226       -1.53560476832867        0.24680075827106
N           -0.70474226217796       -2.72356462269402        0.88314435228785
H           -1.53858873648985       -3.12928122108181        1.27586963333289
H            0.15356372462329       -3.24539397025365        0.89722961826041
H            0.87981019788297       -2.76486095696133       -1.39577518988102
H            2.90071671233140       -2.04026642658966       -2.45358812347371
H            4.49898804139613       -0.66341397675452       -1.38468760980498
H            4.27187078192988        0.15341053904155        0.84550337113910
H           -3.10508312788860        0.64191065098676       -0.88845427113516
