27
 energy: -42.085014967126 gnorm: 0.000282704365 xtb: 6.6.1 (8d0f1dd)
N           -5.57678538964651        0.00099653191023       -0.00127856533224
C           -4.42542326442659        0.00054501561953       -0.00110070460989
C           -3.02269932275395        0.00035537154777       -0.00077790150056
C           -2.36999787870848       -1.20221107606849       -0.30852594654630
C           -1.03399769258466       -1.48758355941496       -0.30719615475085
C            0.14760422061551       -0.71826492929202       -0.06227259184854
C            1.29739595777513       -1.50820237750304        0.03242416224515
C            2.66999558413193       -1.23694673819570        0.10551482520823
N            3.48411273010376       -2.32712514687038        0.19995245307442
H            4.46415620414788       -2.20014236792721        0.37770622790035
H            3.08706728664262       -3.22730303854956        0.40164821984633
C            3.30068949027580       -0.00032741391906        0.00058242996518
C            2.67030508533754        1.23642129042076       -0.10458520335740
N            3.48468406527106        2.32643094901284       -0.19870858796365
H            4.46477247751432        2.19924474825030       -0.37607083022221
H            3.08790402207680        3.22669059124912       -0.40056016252245
C            1.29772401795763        1.50796961681644       -0.03203889734749
C            0.14773377469263        0.71827765266902        0.06214985188926
C           -1.03381663340081        1.48784465124575        0.30661100544425
C           -2.36987295249379        1.20276997932641        0.30731316506709
H           -3.02704726192370        2.03069805481912        0.55142315846942
H           -0.81668845068111        2.52355276439326        0.54383454453496
H            1.09465961280323        2.57415934760843       -0.03883251594077
H            4.38322597018177       -0.00044507471924        0.00078449788284
H            1.09409879473974       -2.57434835747074        0.03916404369533
H           -0.81699111972406       -2.52334798108872       -0.54428470206394
H           -3.02723344262353       -2.03000206707013       -0.55293705001663
