24
 energy: -43.735541427414 gnorm: 0.000688940206 xtb: 6.6.1 (8d0f1dd)
N           -4.93392764692173       -0.34873300482146        0.19243238504280
C           -3.78470966773519       -0.36486709728730        0.17458364287538
C           -2.37509592287635       -0.36379966777879        0.14081714213639
C           -1.75522659208649       -1.50722378082855        0.68924533437574
C           -0.45812202531418       -1.91505642288848        0.60479989327261
C            0.61669588859677       -1.24046316743998       -0.03283054665958
N            1.54750742959066       -1.95930114699808       -0.58848435948840
C            2.78536515628993       -1.71304672925766       -0.93669119737302
N            3.62804613283237       -0.89114336231160       -0.36688555955035
C            3.21101318465083        0.17501871482859        0.31304977681930
C            1.96087931471956        0.76716350913525        0.33380542931287
C            1.88862011883973        2.03231919948260        0.95485492351453
N            1.83099401960215        3.07132711545429        1.44142014780685
C            0.67690279326923        0.21967187627276       -0.07610966306606
C           -0.36865474155820        1.06279372785555       -0.32273082091924
C           -1.75915310381425        0.78411455606620       -0.39012769817972
N           -2.54283924025034        1.75731375367135       -0.89697766974443
H           -3.54539647746996        1.66819558897129       -0.86686174137751
H           -2.14381717279377        2.63526607909740       -1.17957499061458
H           -0.11632441725726        2.10818715373478       -0.46451611092628
H            4.01373324237763        0.70900434574275        0.81274219715511
H            3.19414829705188       -2.37289461851099       -1.69560642473747
H           -0.21519242585809       -2.90254455502741        0.97294668676921
H           -2.44389971708798       -2.19659221026264        1.16421767725430
