26
 energy: -45.613772840615 gnorm: 0.000446634142 xtb: 6.6.1 (8d0f1dd)
N           -3.13609622714004       -1.70653086627989        1.41512356996947
C           -2.35599118404692       -0.94684766721540        0.59882441912612
N           -2.95091411844824        0.13869004799712        0.13866859272909
C           -2.32840597442551        1.04654721344275       -0.62597880253984
N           -1.07504414702508        1.42027688514913       -0.61984470442110
C           -0.01305819269746        0.73677387288528       -0.19321639511379
C            1.07432168990030        1.44701157899305        0.28016014618406
C            2.35613321680741        0.94656162446805        0.59888236333924
N            2.95107748855659       -0.13900097742396        0.13881300117585
C            2.32860481464388       -1.04689968929271       -0.62581392551857
N            1.07524269753483       -1.42062903227887       -0.61971775472223
C            0.01323694799774       -0.73710287564432       -0.19317584718056
C           -1.07416489028906       -1.44731490395743        0.28018879532493
H           -0.89722338377179       -2.49728290313668        0.47600776677932
N            3.16192318067564       -1.76428863650440       -1.42644241395653
H            4.14655072363100       -1.69835885629487       -1.23711513204028
H            2.80099256468796       -2.61289568741044       -1.82573375211396
N            3.13620010574335        1.70628871914471        1.41517715612258
H            2.87279996664829        2.65574231029740        1.60878252096193
H            4.10594030442653        1.45204289705963        1.48850253609446
H            0.89737095177954        2.49699016009069        0.47591432820576
N           -3.16168723194972        1.76389311863999       -1.42668441796948
H           -2.80073804749632        2.61247861838514       -1.82600473643567
H           -4.14632344857633        1.69797377179122       -1.23739891903626
H           -4.10583978088294       -1.45228102151735        1.48839000521074
H           -2.87270512038391       -2.65597398918749        1.60879246972753
