32
 energy: -53.488415248145 gnorm: 0.000496177758 xtb: 6.6.1 (8d0f1dd)
N           -3.63507512843338       -2.38652271107531       -1.14464736866354
C           -2.75364983059038       -1.77356743642338       -0.72904043856532
C           -1.66789312564619       -1.03279131361413       -0.23080786126378
C           -1.99230147531028        0.24726170810049        0.37007035758898
N           -3.24831171189918        0.34871499004640        0.89242280961666
H           -3.92462789481381       -0.36452944255857        0.67911103985044
H           -3.59212484449433        1.25872747723707        1.15104187742931
C           -1.14143075182044        1.33068863169133        0.40998621529873
C           -1.64781326149840        2.52651286129439        0.94204966720064
N           -2.06014507157732        3.51473256545151        1.36821811962607
C            0.20582941901742        1.40278290140057       -0.13773865008661
N            0.58968296832035        2.65745138090566       -0.63430528613571
H            1.57342080485253        2.85874950874046       -0.51547110890167
H            0.00989175593041        3.41593896654429       -0.30110898274429
C            1.06049245545320        0.35723430726371       -0.20103945100185
C            2.37662979613355        0.47744769056169       -0.86642350253286
N            2.31916104235035        0.85571946207085       -2.18493373492875
H            3.18865501787225        1.05888921241922       -2.65071939480212
H            1.52493857103730        1.40669515182988       -2.46771525164930
C            3.54795146191746        0.19528315430413       -0.24668913913422
C            3.70451680187159       -0.40704947573638        1.03746116192163
C            2.83567965158927       -1.23870318304553        1.65593334540620
C            1.57883340420473       -1.67532303965958        1.13174816763583
C            0.77781295760929       -0.98907220900150        0.28886719175013
C           -0.42246228901646       -1.61629250648425       -0.27763390226194
N           -0.24066143344597       -2.82667091173804       -0.84680221445923
H           -1.00758082751080       -3.31230163025492       -1.28202581302085
H            0.67272029213326       -3.24413693860809       -0.84219165762382
H            1.23381049525796       -2.64185657345876        1.48243771673443
H            3.14538896652790       -1.70503053405920        2.58188692860107
H            4.67015341025830       -0.25418253076956        1.50394839338225
H            4.46474117352002        0.44203107082586       -0.76959111326727
