30
 energy: -54.865811373410 gnorm: 0.000396333455 xtb: 6.6.1 (8d0f1dd)
N           -2.98289984851685       -2.79372756811079        1.76293327279259
C           -2.01053196862398       -2.45002974288874        1.25489807659183
C           -0.82564640946580       -2.02703160134159        0.62316278702359
C           -0.87889359903148       -0.69419578303118        0.03004530701773
C           -2.07979076512858       -0.25901461882728       -0.43808062832692
C           -2.47005658642803        1.03280304510925       -0.90702413797998
N           -3.57447097052424        1.05855464244948       -1.69713647126562
H           -4.11303283515669        0.22154950198674       -1.82957494674236
H           -3.99969231535383        1.93567142631222       -1.93895028861339
C           -1.87949034419809        2.22499855433101       -0.55499773961070
C           -0.74714751428222        2.42192875780941        0.26230319676172
N           -0.57160794327640        3.66959019880699        0.75825761234225
H            0.26132477957678        3.89385107693956        1.27593585469289
H           -1.20819816932540        4.40660972784930        0.51686658132267
C            0.24709148826841        1.46876320579601        0.53234204977089
C            1.31918060826738        1.90239362816621        1.33587219036065
N            2.12328957517242        2.27979650884443        2.06768304751293
C            0.33118639213591        0.10972332868246        0.08526089858155
C            1.59084126249255       -0.39032884052550       -0.22610517089721
C            2.62520397391426        0.53525455271185       -0.46679878648710
N            3.49611518756871        1.22235943133877       -0.77288414432614
C            1.94855250577172       -1.76683136518345       -0.50025785226574
N            1.39280479299424       -2.83773651187077        0.00426131311752
C            0.23927571697331       -2.89167965160103        0.65881728320655
H            0.10660086591433       -3.82090045567091        1.20483257714696
N            3.02220135047727       -1.98386296059085       -1.28685123181267
H            3.35098491245522       -2.93039458957805       -1.37253017755437
H            3.62203065205312       -1.22247012381632       -1.55653879024964
H           -2.38853938215893        3.12856556332409       -0.86818972298007
H           -2.86430431166693       -1.00514650852560       -0.49104224532872
