29
 energy: -51.133236394299 gnorm: 0.000569368548 xtb: 6.6.1 (8d0f1dd)
N           -5.41822783998709       -0.96894466152783        0.62010508555178
C           -4.30590631016833       -0.81567786301085        0.38050117102657
C           -2.93512189627680       -0.65290646756073        0.08626461210505
C           -2.36665743769890       -1.61300005313475       -0.81722749730691
C           -1.06584151641761       -1.88879364849917       -1.00241983832697
C            0.10583528309152       -1.31932142183118       -0.34690093676818
C            1.13884803474930       -2.15828304270811       -0.08365612901894
C            2.43388565697327       -1.87223483139866        0.46169798168563
C            3.09944307530976       -0.67771727851290        0.34754073470033
C            2.64425823651748        0.50659277506247       -0.28091338277359
N            3.59430027596579        1.40453745413978       -0.63212633767367
H            4.55540391248243        1.24665949028748       -0.38996796738232
H            3.32472982250741        2.31054696252640       -0.97721420257826
C            1.30499550291994        0.85172394237923       -0.49363871775511
C            1.06644787573516        2.09119064627280       -1.11745890172708
N            0.92057361887444        3.06829249554979       -1.70750403590344
C            0.12752821029003        0.11343324945509       -0.12324582967632
C           -0.95130395503268        0.83392722321585        0.38443536725414
C           -0.66288932015199        2.13015215633106        0.87914493080089
N           -0.45692723094279        3.14613837914092        1.37216508381197
C           -2.28724343280783        0.42770332133155        0.61934393948062
H           -2.87365651088469        1.10457458519767        1.23061916304570
H            4.12707301142358       -0.65768268274583        0.68925200443774
N            3.08371543422396       -2.93831193277340        1.00258717719953
H            2.57342771316252       -3.77839857938669        1.20744512393918
H            3.95778019876837       -2.79739326487953        1.47694862317721
H            0.95441091078085       -3.21241297838963       -0.25576650563325
H           -0.82068193551623       -2.66143721128911       -1.72169237833496
H           -3.08890991649099       -2.19802841534178       -1.37378558055746
