26
 energy: -47.185686373155 gnorm: 0.000576668160 xtb: 6.6.1 (8d0f1dd)
N           -5.01038865139803       -0.61065092949499       -0.21676624962338
C           -3.87756226934670       -0.41417993556185       -0.26428116258356
C           -2.50027676629081       -0.14702738183351       -0.30278762875348
C           -1.69293416986360       -0.97900967794229       -1.09971649573956
N           -0.41752455294063       -1.14913382935189       -1.00761909453737
C            0.50842222985735       -0.48275419770777       -0.33111301310054
C            0.43418883623502        0.97629301162782       -0.21809225424109
N            1.47158182310109        1.75561658238414       -0.51626290718650
C            2.74613295687558        1.55801747665305       -0.33811256273089
C            3.33324178433316        0.56439423523682        0.51599858476074
C            2.77047354093011       -0.64410030623579        0.78232850109271
C            1.55981224877568       -1.17940190373678        0.27336276192943
C            1.37908521492467       -2.56719396652363        0.45304538668868
N            1.25795966982866       -3.69623204572840        0.62289157273024
H            3.35293710903900       -1.33820228691482        1.37700754645631
H            4.32398405637721        0.77297179824076        0.89399424039547
N            3.57522993027457        2.44600612421492       -0.92629576016463
H            4.57023415724344        2.36618342889739       -0.83066073974794
H            3.18677029857034        3.13509340439082       -1.54538567638582
C           -0.74561586151340        1.57570118068930        0.19335300200754
C           -2.03202526393006        1.02905827941039        0.33986389729381
N           -2.93587578941381        1.75874969172090        1.03215371887817
H           -2.69017971988272        2.66545772509338        1.38703483764497
H           -3.89793415685720        1.46571244136873        1.06590424648192
H           -0.63911327721121        2.61083493442600        0.49475775417727
H           -2.18757762281128       -1.62544930033411       -1.81755180244216
