25
 energy: -47.472409428617 gnorm: 0.000405995168 xtb: 6.6.1 (8d0f1dd)
N           -5.18053016725475       -0.95484820235172       -0.15423100867456
C           -4.04863318186227       -0.76497156699106       -0.18001150301090
C           -2.65580060966307       -0.54463377612373       -0.21296447238281
C           -2.13817161882881        0.45631474722207        0.61601757448088
C           -0.86092329834006        1.00112946344685        0.60467458838641
C           -0.62893635507453        2.14529178393331        1.39914848137756
N           -0.43726580203366        3.07285962811993        2.04715196805520
C            0.27534413818499        0.49212142586083       -0.08896692806841
N            1.28546706480074        1.23817299956857       -0.40048841497082
C            2.55025386643762        0.88809856462923       -0.66063823360936
C            3.19716308973794       -0.20348065266388       -0.08004893678216
C            2.50505744562111       -1.29337845579823        0.47025535990940
N            1.27678962215028       -1.67010680367337        0.12543912594249
C            0.29806155279802       -0.96567041259617       -0.36210918437450
N           -0.63368484938705       -1.52284609819376       -1.10939398375646
C           -1.90642147351616       -1.28745536387873       -1.14942754284855
H           -2.44104577988704       -1.79234441641798       -1.94728357385971
N            3.13993500833895       -2.13737046109210        1.31365852783552
H            4.12535201161545       -2.04603215652660        1.47933426698960
H            2.67597684999072       -2.99149967504955        1.56907825585831
H            4.27594610538939       -0.19394412644685       -0.02116949665939
N            3.23806697707594        1.77951005400075       -1.41149630236763
H            4.24033375877823        1.73196585863939       -1.45035516611344
H            2.78953441625515        2.65302733373032       -1.62806814437726
H           -2.85361391212562        0.95133980895384        1.26408056902068
