28
 energy: -45.016330141204 gnorm: 0.000534828505 xtb: 6.6.1 (8d0f1dd)
N            4.19913780075971        0.37600826752617       -1.04430609466621
C            2.88857235201429        0.37036152507398       -0.58089207848692
C            2.08113607044327        1.42958450378187       -0.85839298527074
C            0.77882134651658        1.65414562002013       -0.32228598113410
C           -0.09029772832515        0.71939045125490        0.10606817717500
C           -1.38667457290478        1.08103798455779        0.72966277599182
N           -2.54098134898552        0.70887273896842        0.30822207350452
C           -2.72340912822735       -0.24682639077890       -0.65058566831258
N           -2.07931194104445       -1.35791826982542       -0.79916214678490
C           -0.86976007407761       -1.60948893947317       -0.23369949121819
C            0.09716844759461       -0.72878887032433        0.12460244419765
C            1.37705100158029       -1.19957673494546        0.67363762580023
C            2.58689884632267       -0.70564050602494        0.32664841010354
H            3.45807189447336       -1.19999410672789        0.74278445641670
N            1.28764999455714       -2.26942611449647        1.53804872058735
H            0.38351908284337       -2.45078228277719        1.94091141161581
H            2.07781547345207       -2.44973479890390        2.13598942401295
H           -0.64688784136217       -2.67062140345486       -0.19373093614051
N           -3.82035454856110       -0.03546189142687       -1.44207544627999
H           -4.50779771365046        0.60769050946955       -1.08758675428785
H           -4.15909815711179       -0.84493488143714       -1.93460127668138
N           -1.30980395656278        1.82264945098334        1.85915741037561
H           -2.16414674925266        2.11759940609425        2.30095400451898
H           -0.45677550241190        2.30975084309982        2.06914761267805
H            0.44717473539760        2.68760821125539       -0.31220617280830
H            2.48927774123365        2.22362829526662       -1.47144140420743
H            4.63702361961329       -0.52777010030654       -1.12763194022312
H            4.37713006137812        0.98717350544924       -1.82593259767456
