24
 energy: -42.950184607542 gnorm: 0.000515887285 xtb: 6.6.1 (8d0f1dd)
N           -2.41302974082579       -2.79462542420586        0.44076553643484
C           -1.92995396082014       -1.76425236312438        0.26531296614499
C           -1.40010626301774       -0.47667745789673        0.07677255997168
C           -2.32626742815592        0.60415811726278        0.30105127611714
N           -2.28697577924515        1.80429461058874       -0.22695740886942
C           -1.25267401285015        2.38078403107794       -0.82820299367090
C            0.08044606025636        2.08275417970271       -0.76601366711970
C            0.68094254867003        0.90295047747364       -0.24909654254998
N            1.91925730375849        1.00136626167260        0.14524358053617
C            2.84325440539973        0.07214157212068        0.35676928947643
N            3.02172417128349       -1.04981367239827       -0.33189511105643
C            2.00470192209923       -1.69522858091441       -0.88233164280474
C            0.64604051727327       -1.50508651784140       -0.73625991283545
C           -0.04785736794201       -0.36763504738942       -0.25465613019115
H            0.01395200286490       -2.30917579921093       -1.09335822496975
H            2.32003705871088       -2.57265644694563       -1.43842114999811
N            3.79839534159079        0.37941602284703        1.25596471918526
H            3.81162605643851        1.29622205386550        1.66559361898993
H            4.61303968029514       -0.20628158621056        1.30094883873451
H            0.78271711014091        2.82515917013045       -1.11917951821644
H           -1.53707470921941        3.29746842758560       -1.33651129652995
N           -3.42074670627429        0.34049437930036        1.04527274274138
H           -4.13501318498671        1.04656229290060        1.09269307630270
H           -3.62690839115017       -0.59864286609420        1.34072861197015
