26
 energy: -43.163846718320 gnorm: 0.000649057223 xtb: 6.6.1 (8d0f1dd)
N           -4.59165022393981       -1.57952969976429       -1.20945147641110
C           -3.66580515643472       -1.09953967549996       -0.73384453912321
C           -2.52945400595454       -0.49345889735492       -0.13942139267458
C           -2.80997447543400        0.32300538390905        1.02643734537210
C           -2.06525944573566        1.36396868290016        1.43485198780787
C           -0.86830692681748        1.85518019321897        0.81231411048508
C            0.03703256295128        1.15657958709527        0.09520755986048
C            1.15736731617360        1.87199050645038       -0.54474168159816
N            0.81210440180286        3.03324614560784       -1.17765962991120
H            1.47861003928947        3.45772994691530       -1.80051888912911
H           -0.16061960670913        3.21172092094685       -1.35859954086506
C            2.46643197265604        1.50904024713535       -0.43826221570179
C            2.99513115952789        0.33622076590565        0.14741372442285
C            2.34537518494443       -0.85352858646440        0.32240549093185
C            3.08967535187372       -1.94625170809852        0.81752928897499
N            3.69016958167220       -2.83770218539727        1.22139890670045
C            0.99373332428497       -1.14557894941422       -0.07203857721836
C           -0.03197415013208       -0.27695723453158       -0.18087537165016
C           -1.32231652982764       -0.74837809999312       -0.68523107310141
H           -1.28107370989166       -1.38968931321089       -1.55914189029397
H            0.78356927281806       -2.19280302835321       -0.25590509124131
H            4.05083316361431        0.36097997045240        0.38777450775499
H            3.19581204298050        2.21644256361899       -0.81399581288073
H           -0.65572460864095        2.90181292947498        0.99311418150559
H           -2.42768669275175        1.95246773660550        2.26783891339587
H           -3.74064439031999        0.10437517084631        1.53266452639052
