27
 energy: -46.106025702889 gnorm: 0.000556121007 xtb: 6.6.1 (8d0f1dd)
N            4.80554808882462        0.36749567954237       -0.41287549797514
C            3.66743877481748        0.26486184717209       -0.25303910182789
C            2.28582800487959        0.13613033543842       -0.05874817098482
C            1.72969972686170       -1.12986014705315       -0.33602913138000
N            2.55883967017909       -2.06696952115552       -0.86710231292370
H            2.24759013228035       -3.01948249354391       -0.93178873049659
H            3.54439146689310       -1.87896731588953       -0.94089123218928
C            0.42835378459143       -1.55032330535500       -0.03621037501832
C           -0.68751980057145       -0.83677437014417        0.36021724222628
N           -1.65902074291481       -1.55564559380745        0.93390956501596
C           -2.94083912620019       -1.39856354151414        0.96554534146175
N           -3.73579876578754       -0.64768991148926        0.22436232430443
C           -3.30098925021778        0.48566583959522       -0.32646842796062
N           -4.23735636039464        1.11904711014238       -1.07920250198275
H           -4.11448841328671        2.07829768391769       -1.34826418305770
H           -5.16235908142253        0.72596372379824       -1.08371884607762
C           -2.07019998339349        1.13960066977862       -0.12712730369055
C           -0.83204696080843        0.61216253896760        0.24322136568095
C            0.23386252819801        1.50084945806927        0.44606913091005
C            1.60394632316407        1.30002278204584        0.40352107792656
N            2.39447516010684        2.35091549604803        0.76134330443476
H            3.38325156239514        2.31582709051772        0.58208208062047
H            1.97556666621776        3.24463860306918        0.94440319996655
H           -0.06243354397963        2.53003557189641        0.62166819357596
H           -2.06102164795101        2.18776579541026       -0.40620403949969
H           -3.46479573553747       -2.06844818597574        1.64471491274361
H            0.26979879205530       -2.62194776328193       -0.07418406020178
