24
 energy: -48.539990841500 gnorm: 0.000963369878 xtb: 6.6.1 (8d0f1dd)
N            1.26632771271087        4.02676960187415       -0.55710332814613
C            0.77206829782151        3.00235591995771       -0.41482524588836
C            0.17336127240461        1.73067147980620       -0.26707803278066
C           -1.20451593219422        1.62521380640911       -0.44023988579004
C           -2.05577025103077        0.56943493527028       -0.13472531781174
C           -3.43351628209237        0.88673015184806       -0.20476006186310
N           -4.55384031933607        1.13146980975694       -0.25339334637634
C           -1.76282137200845       -0.77820275007084        0.23738818303663
N           -2.78814760564150       -1.54638159879596        0.64327565377280
H           -3.72779003781680       -1.18267531592987        0.64392463790070
H           -2.64384542779764       -2.52778480918068        0.81967397824122
C           -0.49918955898125       -1.39995076496479        0.08646350241803
C           -0.45151954799855       -2.80883281138171        0.16951680277593
N           -0.43193097904871       -3.95238302693649        0.26452568329376
C            0.69407654907327       -0.74732407253579       -0.22900020410574
N            1.66879307488631       -1.29431058152805       -0.90479332776511
C            2.96005341901252       -1.12239079119544       -0.91073587673686
N            3.70602590055562       -0.66972221114774        0.08316621133346
C            3.14500387196298        0.08176320644975        1.01150998496548
N            2.05251589153274        0.78460159504678        0.88515930706650
C            0.99383649037962        0.66495552381849        0.14080995480275
H            3.71078123947522        0.25031920617275        1.91955682225209
H            3.48176868286284       -1.51699983874527       -1.77425402759049
H           -1.70221594433007        2.53975047620270       -0.74450356120494
