22
 energy: -39.493309303647 gnorm: 0.000858840439 xtb: 6.6.1 (8d0f1dd)
N           -1.61546100369464       -3.04056968391650        0.04664401900005
C           -1.31069695101629       -1.93476836822601       -0.03172122403939
C           -1.00641945467491       -0.56213871070827       -0.08349908584491
C           -2.08936855945123        0.34695376422980        0.17247366646291
N           -2.19606295800349        1.58768989044361       -0.25361362576641
C           -1.23556148291597        2.38728044881589       -0.68515619316924
C            0.12698790749117        2.29590149448577       -0.51552513139350
C            0.84892415809897        1.14503778534562       -0.13554972113826
C            2.09572674948987        1.25153133811722        0.48486746838631
C            2.98277294770938        0.22885310917041        0.84016270582579
N            3.15661641006214       -0.95017003820196        0.29135111605278
C            2.37638927250049       -1.34392621519660       -0.71472994560446
N            1.12887294313566       -1.09654412963153       -0.89763794693359
C            0.31060738341965       -0.19886107701749       -0.35369570149254
H            2.83363307027524       -2.02933474051457       -1.42164527701395
H            3.72194905602140        0.46508836632053        1.60044028225213
H            2.34572332867489        2.24269540878902        0.84408214408780
H            0.70805491572925        3.19365228131271       -0.68218881679786
H           -1.62728646028323        3.30467767247640       -1.11354701096118
N           -3.17421268282075       -0.13599278602642        0.80541982957639
H           -3.24682004768202       -1.11567133950532        1.02338188658418
H           -3.98601226486577        0.45399818203731        0.87109254092769
