28
 energy: -45.808027405607 gnorm: 0.000919401334 xtb: 6.6.1 (8d0f1dd)
N            4.21901065053199        2.00530566791827        1.25455608898794
C            3.39751361305175        1.31620039765115        0.84052240851738
C            2.37914635708895        0.48357661695263        0.33751890461451
C            1.30539622816106        1.13776483546387       -0.36559301282265
C            0.04988192977921        0.65986896598309       -0.53340236349576
C           -0.93828864164590        1.44125630758856       -1.27446524484101
C           -2.21625175318844        1.61666211154330       -0.92641286075231
C           -2.89190271060248        1.08630781151865        0.24347931443678
N           -4.02742407751484        1.78587059223394        0.61052362927232
H           -4.04836922550837        2.76478051671148        0.37440289267200
H           -4.41122392742463        1.56841204545370        1.51611640605304
C           -2.57355384674936       -0.06977479907144        0.87523758394305
C           -1.53740053932499       -1.00029966012081        0.50777692578298
N           -1.79850552630310       -2.33870397966511        0.82002169950938
H           -0.97558998981219       -2.90841807473562        0.96053244433385
H           -2.48169936887083       -2.46388899113157        1.55245708996237
C           -0.37495135245680       -0.66349397021096       -0.10116671789279
C            0.59900590314579       -1.70078232168176       -0.54851353083419
N            1.80762800568701       -1.81469173576731       -0.13171867177556
C            2.51108105217658       -0.86867776463854        0.51228016877155
H            3.34831213330813       -1.25576473578613        1.08045793458637
N            0.14042018925694       -2.55905304425555       -1.48533436705269
H           -0.84781875732446       -2.64199557140309       -1.64396425912890
H            0.76413984987750       -3.25744683950723       -1.85230964578968
H           -3.22542574249565       -0.39158344461101        1.67999838790720
H           -2.83450106613115        2.26225378143053       -1.53858510525601
H           -0.57291760708920        1.94181734898503       -2.16380967991728
H            1.51678912927796        2.14145583995236       -0.71488626309203
