23
 energy: -44.022339774663 gnorm: 0.000535370813 xtb: 6.6.1 (8d0f1dd)
N           -5.15484523791243       -0.29983443466365        0.16535898827934
C           -4.00726535068795       -0.29253064637136        0.17352713911421
C           -2.59732454606734       -0.30132529699519        0.18384971987592
C           -1.94921678998785       -1.30858194575580        0.92673630906001
N           -0.73375372655656       -1.71101608620226        0.74711017242237
C            0.30303398666380       -1.20268895943506        0.12333529521096
C            1.22428966823019       -2.02207725532507       -0.54518136490150
C            2.51417187777236       -1.66586584929875       -0.91325071829127
N            3.28370184863472       -0.70603766568925       -0.44498127047043
C            2.85542438464191        0.25573104207754        0.37224441463491
N            1.64933742601709        0.82003340425214        0.35575937506996
C            0.51531177143901        0.25185833519933        0.06922931432994
C           -0.57023041574271        1.04799112743292       -0.41261509034784
C           -0.17873200040113        2.27720205166554       -0.99362827648136
N            0.12128562241627        3.27955056819087       -1.46299119981839
C           -1.92291491566289        0.74061303581266       -0.46143344614744
H           -2.54842162082944        1.46829255711006       -0.96746578295751
N            3.77486279278608        0.82904375310755        1.15820609913424
H            4.73474418516864        0.54723798140848        1.06059615147973
H            3.53970799924429        1.66655786656222        1.66194737152324
H            3.03774299545248       -2.32913891969823       -1.59439269227271
H            0.86905617002995       -3.00342806647779       -0.82835803565634
H           -2.52181581125329       -1.87254017070562        1.65519052440964
