29
 energy: -50.343092377396 gnorm: 0.000856049156 xtb: 6.6.1 (8d0f1dd)
N           -0.06610047985932        3.07528471702465       -2.11984150996994
C            0.38691277737956        2.28629006726432       -1.41660936900813
C            0.98835539574864        1.26573517807009       -0.65333723901404
C            2.36266593581748        1.35553768246197       -0.48496212506019
C            3.21074353720356        0.51328014686999        0.20637966809823
C            2.94145582838830       -0.79007248437429        0.64015888644863
N            3.92668753305828       -1.43400621619787        1.32706693916048
H            3.85028726589615       -2.42152744719298        1.49271785377952
H            4.83910248637202       -1.01862046803965        1.39092188079553
C            1.79001094603239       -1.53476911990864        0.34335288290357
C            0.54726506573500       -1.12829969633254       -0.11126084728979
N           -0.24224246893232       -2.08248835889147       -0.60920025249311
C           -1.53665690695339       -2.22406808637322       -0.60313256447156
N           -2.00858948426268       -3.26798238954606       -1.33749181607117
H           -1.36847526597429       -3.70317529676461       -1.97885979801547
H           -2.99232086221990       -3.34386658190413       -1.52065908799492
C           -2.46579554182841       -1.50960946452953        0.19711538163172
C           -2.28376001086346       -0.22358747208819        0.64514088172167
N           -3.25177723442938        0.34577574437792        1.41291215005106
H           -3.23336821352575        1.33989943057848        1.57025379848782
H           -4.13101767526571       -0.12920949789427        1.51763824840969
C           -1.16438990111988        0.62484265495769        0.29327897669896
C           -1.38225125740078        1.99591620317628        0.53699464871203
N           -1.61795355157726        3.08255217114101        0.83532526027341
C            0.10505375584057        0.25835556162862       -0.13886823563413
H           -3.42025198058173       -1.98175804040950        0.38664747966232
H            1.86753359041049       -2.60457343122752        0.49713798750847
H            4.21802720980464        0.87195406691634        0.37510181064512
H            2.81281893320668        2.25219359540734       -0.89565418386570
