27
 energy: -51.702534507910 gnorm: 0.000565557923 xtb: 6.6.1 (8d0f1dd)
N           -2.16087953505764       -2.68470696719036       -1.88537372593446
C           -1.31821733485032       -2.21103544523382       -1.26622864910232
C           -0.23146390157144       -1.62269667345485       -0.58361505436536
C            0.89322645652880       -2.39300353629900       -0.41845476213501
N            1.98220057039805       -2.12911353255663        0.29319968420511
C            2.45180928324319       -0.94544676940292        0.57497561608904
C            2.03585554460297        0.30251012858792       -0.04610470697770
C            3.05276372884125        1.26790234948591       -0.16617787245512
N            3.92570024190870        2.01387586800215       -0.22859627648499
C            0.74335508291854        0.65454473440868       -0.39885775944168
C            0.52988543503139        1.89189123911717       -1.08774512294071
C           -0.60100108984798        2.65252252282316       -1.09209335160394
N           -1.65076369002246        2.60175750847753       -0.26974354624936
C           -2.05080498094396        1.57935222018737        0.42600955561684
C           -1.64211840730251        0.19505420063901        0.20587524523045
C           -2.60938907759401       -0.76354689213508        0.57591308780621
N           -3.42531275065449       -1.45958811603788        0.98829158919249
C           -0.39853644302404       -0.22871895692523       -0.20281817106120
N           -2.99214334617211        1.80623138336385        1.35963513594809
H           -3.48385346595169        1.04205530249838        1.79198294175089
H           -3.36334356463279        2.73855280150774        1.43295282528334
H           -0.62823195644530        3.51931917932042       -1.74315786251608
H            1.37370558043299        2.25436393922133       -1.66068705062087
N            3.47667889418771       -0.89267936559081        1.44433332073644
H            3.84104259498910       -1.76156127018491        1.79706660999269
H            4.00689852230076       -0.04631738693499        1.56544687467962
H            0.87103950438677       -3.40391268549418       -0.81184327234315
