22
 energy: -39.495899275050 gnorm: 0.000625098709 xtb: 6.6.1 (8d0f1dd)
N           -2.51290692500400       -2.65498312819912       -1.16178161798459
C           -2.11818426831643       -1.63409550568323       -0.81236888464879
C           -1.64687369652918       -0.37165896812710       -0.39857624942489
C           -0.31727957852696       -0.31430248299215        0.09884137315510
C            0.29042350563242       -1.47369531192222        0.59507505690950
C            1.62280069897348       -1.67251055715572        0.95348346300039
N            2.70291038972285       -1.03284152145563        0.57126276825443
C            2.61868443737313        0.05385447152040       -0.21410067931995
N            1.69838688295821        0.99448218878643       -0.15907821556567
C            0.42494823314622        0.94339227639670        0.14663957699074
C           -0.17474557141672        2.14498581463834        0.59467920880682
C           -1.51491685662238        2.44260117979107        0.63731987567437
N           -2.51690994624096        1.88139354420199       -0.02357647264713
C           -2.52703759751088        0.70353329872140       -0.58472513285819
H           -3.41281191732727        0.51019001433836       -1.18385621342072
H           -1.81584432378509        3.33925647821720        1.17058629356816
H            0.52508659721661        2.88604575788355        0.95731971525855
N            3.67053503085377        0.27406425835582       -1.01659409294627
H            4.45040716082345       -0.35738114481453       -0.97476520942932
H            3.72325104606833        1.12052549781557       -1.55446920954039
H            1.83979407905966       -2.54886849222020        1.55684992998329
H           -0.37952848605732       -2.29981177270190        0.79981307647486
