23
 energy: -38.408775573046 gnorm: 0.000945330487 xtb: 6.6.1 (8d0f1dd)
N           -3.92651157774318        0.37664259869340        0.67065239747971
C           -2.67293020297773        0.00112313518942        0.24270459748431
N           -2.22886357507369        0.72088165972774       -0.82987934488737
C           -1.03349235060182        1.02541054194562       -1.11174549839546
C            0.15793263600487        0.77673444577382       -0.28271629546731
C            1.07463635266951        1.72937236635525        0.01166404488874
N            2.15298810016171        1.60722570001529        0.83173895942069
C            2.77117208133456        0.49657262687310        1.01821003227804
N            2.71070208078979       -0.63386948134633        0.28668255908520
C            1.66199611675237       -1.08358461762848       -0.30114868599033
N            1.77870655800049       -1.98995054990330       -1.29182966346669
H            2.69522899998667       -2.27587965959310       -1.59052016095584
H            0.96884097655789       -2.47614485455844       -1.63361066303656
C            0.28225059975485       -0.63396507438589        0.03904693091792
C           -0.69425254116394       -1.46940883146843        0.45984242259315
C           -2.03777896692999       -1.10150755837237        0.74552331397195
H           -2.61095961241745       -1.77442982808705        1.36916281196237
H           -0.42221229667163       -2.49834643359950        0.66518178235188
H            3.57182673311426        0.50464431005224        1.75009706622682
H            0.89524656886711        2.74776793744189       -0.31514752298003
H           -0.88099920437506        1.49242335303079       -2.08229151480505
H           -4.43657971731681        0.97047651576686        0.03723506850319
H           -4.47164507752354       -0.31597319952283        1.15653358242009
