26
 energy: -47.188218424845 gnorm: 0.000655384023 xtb: 6.6.1 (8d0f1dd)
N           -1.62828918127446       -3.62237913446062        1.31994917830468
C           -1.67485678100345       -2.53428762992487        0.95305004930374
C           -1.73552117656261       -1.19563259717046        0.51747549168730
C           -2.98515593367118       -0.59751471820553        0.54794541072585
N           -3.40269077410434        0.53272573934687        0.01705729382231
C           -2.64433857755494        1.53979634191812       -0.38926670685525
N           -3.32228376166589        2.50968854035339       -1.03881143589612
H           -4.31498536691463        2.40019963995180       -1.15066123207984
H           -2.87903657547645        3.37117648301079       -1.29948542150519
C           -1.27761997249989        1.76759476474155       -0.10124882900684
C           -0.30970293392305        0.83552314197467        0.20115390581832
N            0.84812360863976        1.30542123013996        0.68771066943194
C            2.07440682231483        0.94921468455014        0.51482865255736
N            3.00996018131078        1.52063886425095        1.29797198482223
H            2.72309992866033        2.20075196507681        1.97972863641756
H            3.98754269356538        1.36932444252104        1.12124726364930
C            2.53944877966864       -0.00336958560270       -0.48734863970807
C            3.86698523114413        0.12271820113965       -0.92068983167321
N            4.95743425390501        0.27433793884602       -1.25556593913791
C            1.78422572962462       -1.08987946436211       -0.86120883445673
C            0.48455314522445       -1.42111502354226       -0.45177958800912
C           -0.49942874959270       -0.60885282645329        0.07632916780636
H            0.19043763126730       -2.44555298557369       -0.64527595113783
H            2.28035767792593       -1.82257097482725       -1.48749912475568
H           -0.93802023913740        2.79476049014022       -0.13982610421827
H           -3.79353324206883       -1.18517858294022        0.97504925699323
