25
 energy: -42.661671120661 gnorm: 0.000442233439 xtb: 6.6.1 (8d0f1dd)
N            4.96159815579391        0.17277945403811       -0.67870545340071
C            3.82689327533945        0.19773058245713       -0.48462263481044
C            2.44212908243484        0.20362801424652       -0.24311325947736
C            1.76292818770871        1.36391126481477       -0.59726348122666
C            0.45301151156316        1.72053824885786       -0.35595697359139
C           -0.58594053255874        0.95548239634958        0.18336228809254
N           -1.58936666288434        1.63097144000499        0.72715966075814
C           -2.84922638362466        1.37033669547837        0.87336835151685
N           -3.60802783713345        0.50348163636130        0.23562814234456
C           -3.09327191785052       -0.62620187399116       -0.26335356930780
N           -4.00224295990219       -1.38865121623227       -0.91634259833118
H           -3.79839004606891       -2.33873554946455       -1.16735120915060
H           -4.95360940581392       -1.06496239946536       -0.93144071919463
C           -1.80429046743116       -1.15718716798349       -0.07256426097916
C           -0.60011937213616       -0.50271141771036        0.20595835958434
C            0.54195255661799       -1.28606438887688        0.44187887266314
C            1.88939369171819       -0.98504174259051        0.33379287305071
N            2.78025319544986       -1.93292927659907        0.72471865781088
H            2.45721548547745       -2.83021738561930        1.03799961693312
H            3.76144315661403       -1.80622386831536        0.54485794834571
H            0.33251117421022       -2.31521246926746        0.71630069535670
H           -1.71469711352462       -2.21793036682168       -0.27991531544710
H           -3.38406126209882        2.04326680051741        1.53900911889709
H            0.18700857437856        2.75185298824052       -0.54792832184472
H            2.38435271313117        2.13070362416952       -1.04670026680069
