21
 energy: -39.782422212739 gnorm: 0.000863182837 xtb: 6.6.1 (8d0f1dd)
N           -0.78590739218979       -3.67640182681437       -0.63957664562771
C           -0.27505341847968       -2.65933670229920       -0.49147404375395
C            0.35003469995458       -1.40646510677321       -0.34025640003930
C            1.71974778210058       -1.28973340745005       -0.59758618740989
N            2.54990525968138       -0.35753669963268       -0.21344737250145
C            2.31783450618996        0.87898567982905        0.21376594014088
C            1.16422407757663        1.65339133466649       -0.05462851963711
C           -0.05729827035634        1.08202791371010       -0.30212182712283
N           -1.05102133566418        1.64895378800549       -0.96418674332794
C           -2.33868577861275        1.56129783643573       -0.84508055972881
N           -3.04148814313016        1.16973573610280        0.21526956333659
C           -2.47166852603030        0.38284196106496        1.10057944835325
N           -1.43302789140787       -0.39233221820656        0.91105301725481
C           -0.40877345418778       -0.31016757872156        0.12081895770224
H           -2.99291792117725        0.24039586335828        2.04017369860893
H           -2.91230753988026        1.97017434845428       -1.66987201360996
H            1.25881430123889        2.72864970398053       -0.10433423255455
N            3.37531107510955        1.46751471046459        0.80620911647076
H            4.23371436429625        0.94970359852394        0.88025600618251
H            3.35398842060880        2.43913159309400        1.05655052840168
H            2.21189294845966       -2.14116964779356       -1.05999845803549
