22
 energy: -39.493392700993 gnorm: 0.000416687795 xtb: 6.6.1 (8d0f1dd)
N           -1.47579526014415       -2.94407882464705        0.74549001034360
C           -1.24845535984105       -1.86405955561870        0.42385262724985
C           -1.02133812030791       -0.52624907488679        0.04759380624511
C            0.30202454116532       -0.23073929852205       -0.39253762642990
N            1.04310684600071       -1.14430890841360       -0.94070996239114
C            2.35598391242688       -1.24065558251921       -0.98268968543179
N            3.20830884928187       -0.83169579251890       -0.08684105110123
C            2.95173810794267        0.16861059803245        0.76401167718698
C            1.99589791728857        1.14772900050845        0.67854283157503
C            0.81777170618991        1.12625279996597       -0.12734469553300
N            0.21677800311314        2.21639241782063       -0.47155841215900
C           -1.05128777900451        2.40758348278142       -0.81044191599538
C           -2.13190361884584        1.68148474993160       -0.39131507877548
C           -2.10401053577627        0.36568770643920        0.14885597148771
N           -3.25745030198752       -0.09740477482319        0.67851288498000
H           -3.33555721739271       -1.06461577337759        0.94708384501686
H           -4.08951014842946        0.46430039539081        0.64493560407789
H           -3.11199893520396        2.12739017735248       -0.49462168620515
H           -1.21958242895565        3.33360594180264       -1.34825465869044
H            2.08405955639883        2.00980364618960        1.32697874960808
H            3.71238723477988        0.27192531764263        1.53072615288294
H            2.74725740400176       -1.87316213442941       -1.77215851424284
