29
 energy: -50.339191062051 gnorm: 0.000726571569 xtb: 6.6.1 (8d0f1dd)
N           -0.33344986621458       -3.16407241027576        1.40765043250675
C            0.10388927113356       -2.21331422350908        0.92674652546544
C            0.70831140528772       -1.03837448347279        0.44358061834407
C            2.11192445962751       -1.10066819280049        0.23513302884865
C            2.89270851703168       -0.12303047872992       -0.37653042989254
C            2.59449168786498        1.21864040461861       -0.61583696663605
C            1.47037811780890        1.91904286160790       -0.15314031197369
C            0.28069869596705        1.43129208620711        0.35507806037546
N           -0.46210644729275        2.26554369967338        1.07695217133325
C           -1.74357428265373        2.37917862814558        1.24089227427218
C           -2.76141707728957        1.79626808015785        0.49572019283767
C           -2.62338124728560        0.62689950636127       -0.25021472412179
N           -3.69973609715351        0.19661084353181       -0.95882975880661
H           -3.70684338750722       -0.73608193264851       -1.33773736648647
H           -4.58041127980323        0.66555219782203       -0.84048957095971
C           -1.47198037285703       -0.21841467955316       -0.23985421169754
C           -1.65230880852516       -1.46726088573992       -0.86815132920940
N           -1.84588440733704       -2.43568107899139       -1.46032664885610
C           -0.15697515183513        0.04879472959026        0.19248949523086
H           -3.75208209282306        2.22338106476823        0.56711877587121
H           -2.02372373034449        3.09131475637040        2.01193580364027
H            1.54180557008248        2.99955033042109       -0.16768822929199
N            3.53202646194667        1.94985156559472       -1.28241152089434
H            4.44219363699604        1.55961767136627       -1.44998505642359
H            3.44087289054477        2.94962742117264       -1.31421950473010
H            3.89399638705611       -0.43561017954459       -0.65004596297167
N            2.73104750903531       -2.25789910866261        0.58852286758055
H            3.67303769931211       -2.42929971265633        0.28562859420349
H            2.17517067702667       -3.04558863442461        0.87783185244153
