36
 energy: -60.363151704165 gnorm: 0.000321280835 xtb: 6.6.1 (8d0f1dd)
N            4.57132334932826        1.76237641289550       -1.03254014345839
C            3.63768990055248        1.23544361164786       -0.60921584033301
C            2.49510441393694        0.60671347276630       -0.09519840314932
C            2.69369905850404       -0.26923796786388        1.05456199870108
N            3.73444918654622        0.09199520211179        1.88821405332295
H            4.08076365914874       -0.61988288139002        2.51071581589517
H            4.44290546750716        0.69022688496357        1.49283666751059
C            1.95148865231797       -1.36996241187941        1.32120011905847
C            0.85610553405476       -1.89274604345473        0.54640110314882
N            0.76571610779131       -3.28717859004024        0.53499585599424
H            1.19653251680592       -3.73181264847047        1.33147888285269
H           -0.15320035145999       -3.65170167213001        0.33199274963891
C           -0.02870969161915       -1.12791376030703       -0.14442476966787
C           -1.04176778340641       -1.70105403085284       -1.03613248841116
N           -0.60898865656655       -2.67960304341835       -1.89028476623638
H            0.38366292649630       -2.80484981114230       -1.98757180594004
H           -1.18194688831061       -2.91974601227591       -2.68193022509437
C           -2.35595013342408       -1.35612064021020       -1.00523247506557
C           -2.97970702785828       -0.43266978378191       -0.11257278969837
N           -4.32680065921868       -0.60245381401821        0.06279676684331
H           -4.78852297409248       -0.04156630861999        0.75977497749961
H           -4.73117581825189       -1.49840154337909       -0.14542159516369
C           -2.36093267155242        0.65956703388977        0.46954693867772
C           -3.12421354515407        1.46784937580284        1.31998067288776
N           -3.74525521920669        2.12297688583247        2.03869391792962
C           -1.02603154527811        1.14411903677921        0.14806724348733
N           -0.89043797882686        2.53858001936739        0.12537024467346
H           -1.62536475741678        3.02192962330215        0.62354097430698
H            0.02634634940914        2.87546719604236        0.38448282880756
C            0.02069388423391        0.34233486647278       -0.15675232908103
C            1.28056306813288        0.89893282828559       -0.66246682555985
N            1.18376337310273        1.68333147999176       -1.76791753341201
H            0.28148858959838        2.06294624898821       -1.99825856942451
H            2.00321768960502        2.16164594166685       -2.10710008003052
H           -3.03088675840947       -1.89222448309035       -1.66228106323186
H            2.27223102898044       -1.98613734528044        2.15365089882049
