21
 energy: -35.769315635705 gnorm: 0.000636052270 xtb: 6.6.1 (8d0f1dd)
N           -1.50411082480971       -3.16751501521866       -0.84250962246625
C           -1.38976642884241       -2.05676728553458       -0.57524025994812
C           -1.24752359885779       -0.68462701614568       -0.28212038980779
C            0.02003724954217       -0.25795107899262        0.15602092790107
N            0.84518994796222       -1.02986410240109        0.80066242744050
C            2.14084507410895       -1.11204491291779        0.91408126402442
C            3.05371040364309       -0.58260850321716        0.00099564375444
C            2.66450344798316        0.43805485919113       -0.85621307687343
N            1.63381970347407        1.22627079396709       -0.66861991893781
C            0.50485163801304        1.13017750312731       -0.03700299609950
C           -0.21594448547958        2.25287659020557        0.40545563230684
C           -1.58504034013331        2.34322615617831        0.48046889646077
C           -2.55413431488594        1.42563452329571        0.05605548058675
C           -2.38952695125260        0.12195014496126       -0.36114590824666
H           -3.28148999207793       -0.39110339496096       -0.70200749156204
H           -3.57064802671428        1.79628211831738        0.04542740904740
H           -1.97261207567333        3.29621429111918        0.81956125068255
H            0.36762870040392        3.13983757123773        0.61134002643238
H            3.29763791012029        0.72950772024895       -1.68661995999921
H            4.06205495540235       -0.96161774226883       -0.03290246734765
H            2.47891925707316       -1.73604797579267        1.73332421405201
