28
 energy: -51.424476847867 gnorm: 0.000810230375 xtb: 6.6.1 (8d0f1dd)
N           -0.44226931625453       -3.74458732439422       -1.35065300742178
C           -0.70129053944995       -2.68003307415213       -1.00474124673079
C           -1.01205852913307       -1.36992681022612       -0.58210046250625
C           -2.35012703743225       -1.08797024260861       -0.42126785815596
C           -2.96589800076895        0.06571468381616        0.07746720471816
C           -4.34455307501068       -0.04290360333082        0.34499592463132
N           -5.46910470809429       -0.11166837688534        0.57448232389009
C           -2.37463093271209        1.33574827819562        0.28336670045682
C           -1.07288620117154        1.69558666853504       -0.10166462485762
C            0.00974150717131        0.92051982487133       -0.46356661661090
N            1.01175859830493        1.56922874621655       -1.07656008217325
C            2.28715193851482        1.46225708876535       -1.00404480144682
C            3.04073065187422        0.66710423905920       -0.10937809011397
C            4.38563969699069        1.00720011733489        0.10354651495092
N            5.48505084481388        1.28089109686469        0.30194392035386
C            2.55740176268109       -0.54851060844292        0.41501369124888
N            3.40129070113593       -1.30600325055500        1.14712112245174
H            4.35067066944128       -1.00353990556390        1.29061895849820
H            3.14695398881663       -2.24292359525923        1.40684510838893
C            1.28719753048969       -1.10951235471667        0.12969029146102
C            0.11882324074524       -0.52112972513985       -0.29886565363473
H            1.21719246182380       -2.16879056096706        0.35162106560917
H            2.83968644523671        2.10716878369515       -1.68127307523542
H           -0.87900615924945        2.76148059766222       -0.13559630665928
N           -3.15630175277851        2.31416564468318        0.78961822530658
H           -2.80869584687089        3.25370214899805        0.86141086464050
H           -4.12999273808370        2.13932337217601        0.97527828810911
H           -3.02783506592882       -1.90702604233106       -0.63895402906943
