23
 energy: -43.246321945063 gnorm: 0.000454385316 xtb: 6.6.1 (8d0f1dd)
N            4.87707484882348        0.44585073643868        0.43202074420579
C            3.72877968934765        0.42099832181919        0.36560832796942
C            2.32873862649381        0.35592180366294        0.26268523928088
C            1.58907182253950        1.41344277714241        0.78630715979774
C            0.23360987532685        1.67131106253355        0.66195500143256
C           -0.71857320440575        0.76625335859828        0.20035697981975
N           -1.88778650927846        1.12593443081704       -0.28440959752680
C           -3.00700403189630        0.43038370036882       -0.35082814331894
N           -3.42956822271705       -0.49308237505767        0.53402628862810
C           -2.55435482738279       -1.17695847230689        1.22803052386656
N           -1.29115465104074       -1.40212695186136        0.96299506075123
C           -0.43947918121116       -0.69340868066479        0.26578666338901
N            0.59143368645265       -1.25806291385115       -0.31689351556497
C            1.79570439521417       -0.76140265933721       -0.46961796791608
N            2.61296678293036       -1.42191373197291       -1.31280103956639
H            2.27880169104070       -2.27610737941969       -1.72458579017657
H            3.59800433440654       -1.21733540990457       -1.32420478097093
H           -2.95417776816942       -1.74041132870439        2.06515034804115
N           -3.90382982490315        0.79818735375301       -1.28623615257344
H           -3.73000826943772        1.62471524302947       -1.83031706406449
H           -4.83909361065435        0.44048525281862       -1.20333751578821
H           -0.12109956308380        2.65428991544027        0.93891318066941
H            2.18029722791550        2.19192554334983        1.25532610192999
