29
 energy: -45.529834890214 gnorm: 0.000470898628 xtb: 6.6.1 (8d0f1dd)
N            4.91042172313928        0.43418889439028       -0.08137922304636
C            3.76352606509346        0.29452844938485       -0.05092306161229
C            2.37841091440238        0.12524069608985       -0.01612461878301
C            1.87775718970415       -1.19219266563505       -0.11842856633713
N            2.80709315068263       -2.17134257011604       -0.30175138294988
H            3.78493965552151       -1.94399254742910       -0.24674713322288
H            2.53488261306695       -3.13647760427442       -0.26159494335437
C            0.55268422716826       -1.60879945239462       -0.04689619069900
C           -0.69369796940150       -0.97072193538075        0.06104932640749
C           -1.76779312404993       -1.88377562592803        0.21206152197373
C           -3.13903977485887       -1.74833410424371        0.24120512877105
C           -3.92716522360035       -0.62792831770203        0.08297739849956
C           -3.45222256995417        0.67652827061587       -0.09220231466200
N           -4.40209126907188        1.66021884109048       -0.20258592752561
H           -5.34846751584081        1.38775380608675       -0.40348284679391
H           -4.12073500115008        2.57302609301759       -0.51596257805975
C           -2.12500185684838        1.09890914500292       -0.08747808756370
C           -0.87329431735339        0.46424472252963        0.03023408109652
C            0.19693086190435        1.38148767964997        0.11145499021877
C            1.57896768879329        1.28870933282689        0.12544141598972
N            2.26391600461655        2.45602736406568        0.28971420707960
H            1.77467594541678        3.33210907296454        0.27453776072488
H            3.26425313468525        2.46229592883729        0.18959306444487
H           -0.13101836506824        2.41441531200218        0.18237468223632
H           -2.04781016080282        2.17761066109001       -0.18994734493323
H           -5.00085603831967       -0.75947275312335        0.09880825852690
H           -3.68201355305252       -2.67604261120532        0.38357803480531
H           -1.44194232429282       -2.91188024538932        0.32345222899247
H            0.47545725137046       -2.69119989082287       -0.08998272352405
