28
 energy: -45.810991368166 gnorm: 0.000933713118 xtb: 6.6.1 (8d0f1dd)
N            4.06438342717302        0.87763495377715       -1.50635796019251
C            3.13650344991935        0.38469404003429       -1.03861897377940
C            1.98152932414231       -0.18682865839557       -0.47364065792139
C            0.96889690288907        0.73173746465004        0.00844470661826
N            1.40001676272693        2.02392696019049        0.34411995436116
H            2.31737622376007        2.24493541146618       -0.02003530849600
H            0.72799999704556        2.74817840901748        0.12899055667475
C           -0.34597451050246        0.40109980325983        0.13589945191653
C           -1.33336073480464        1.34301125064917        0.70238978611177
N           -1.03955779986227        1.80910879807850        1.96178803983985
H           -1.62543530411882        2.53927156658414        2.33327818079323
H           -0.06427416011640        1.85698886054394        2.21024824308487
C           -2.47307273188649        1.68235726351740        0.05214907974118
C           -2.98499092309677        1.10133083552962       -1.14855945289925
C           -2.77402288055553       -0.15343038132239       -1.60406479640372
C           -1.97183240900465       -1.14859314464880       -0.95630934543049
C           -0.90451339371743       -0.90253247028460       -0.17868818074753
C           -0.16352230821692       -1.96069802368647        0.55981129456539
N            1.05833323028015       -2.27844447928801        0.32060223295730
C            1.93054166907582       -1.55593093789450       -0.38936877843165
H            2.74701026904717       -2.13483635595409       -0.80383683353644
N           -0.83831920922538       -2.58825651455186        1.54129130455427
H           -0.35897717110612       -3.24428099083110        2.13306472627010
H           -1.82490107171847       -2.44074217436882        1.65120123546101
H           -2.24834191261686       -2.18096880199949       -1.13514980617910
H           -3.32309458035917       -0.48264931431592       -2.47618988252759
H           -3.69999413315356        1.71443964708016       -1.68365223286812
H           -3.07039625254557        2.48043933595215        0.47850422151258
