27
 energy: -46.895916273547 gnorm: 0.000805322333 xtb: 6.6.1 (8d0f1dd)
N           -5.10402862301996       -0.16697454284045       -0.97784085646225
C           -3.98654719951121       -0.14421862123859       -0.70667300795355
C           -2.62064306399194       -0.09670133728357       -0.37109822671860
C           -1.84262065078505       -1.16372788053546       -0.74345335252880
C           -0.49494125766812       -1.40924680999039       -0.46046984252175
C            0.50252282627146       -0.56876157740761       -0.00926596042797
C            1.74419118032208       -1.20645050131485        0.38162974417490
C            1.63635480942455       -2.54264581976210        0.82075048524439
N            1.57462250498435       -3.62626362257315        1.19933616842752
C            3.02828306584654       -0.69866392565216        0.39757389739421
N            3.51196161098719        0.43961471218717       -0.06559955379278
C            2.78020495788027        1.50729652379322       -0.33515077461771
N            3.47810628598755        2.52617771385134       -0.88117044025896
H            3.05125312121844        3.41050005134606       -1.08616309837169
H            4.45447533303640        2.38284950098834       -1.07008597629906
C            1.42009857301054        1.75105075609127       -0.01429385451620
C            0.36982277278853        0.86819318641898        0.14797814548711
C           -0.87417040099728        1.45463936179456        0.53734859819571
C           -2.17566781768905        1.06091897200460        0.37605256728117
N           -3.16251849128679        1.83548183476155        0.89948914196301
H           -4.12499448969532        1.63598636148647        0.68935375982054
H           -2.93799129619984        2.70514515240242        1.34753688731558
H           -0.75933827553389        2.41785968666400        1.02446602050270
H            1.15554527313330        2.80212340915013        0.01502625054807
H            3.80458345201641       -1.36540840496745        0.76428636184037
H           -0.18294567412301       -2.42887700476353       -0.65301874714887
H           -2.35941522758154       -1.96191803701221       -1.26392285016242
