30
 energy: -50.051947637978 gnorm: 0.000799130141 xtb: 6.6.1 (8d0f1dd)
N            5.26244166292192        0.26018759231080        0.87633793911564
C            4.21651776020970        0.05377693361927        0.44322194086698
C            2.92817004589430       -0.17468186922944       -0.07375873054692
C            2.84203358604432       -1.15644468628917       -1.12565824675666
C            1.75797128422982       -1.87598995022809       -1.47122159397382
C            0.46265913756644       -1.79919830041949       -0.86233335513495
C           -0.08740530336731       -0.72860744740372       -0.25484267169257
C           -1.39223840900300       -0.85873134139888        0.41408168688960
N           -1.48645681649802       -1.87893206846806        1.30022183826661
H           -0.73345334514377       -2.53831685022994        1.38112160312325
H           -2.35001140731403       -2.05199942220206        1.78725623814259
C           -2.45773635345275       -0.02551258694068        0.17894460123216
C           -3.67461121381141       -0.34278112323630        0.80671556881510
N           -4.66805932241273       -0.60200732351250        1.32820782771125
C           -2.47290215962112        1.15182528683655       -0.67828020032387
C           -1.39607022315510        1.95502498932262       -0.89676663403585
C           -0.07049941037406        1.75748281249397       -0.42270563182257
C            0.53819117519211        0.58624235256844       -0.12665252068739
C            1.89908304608935        0.58535275307600        0.43120806763031
N            2.09507277217481        1.40794561844446        1.49188553173976
H            3.01734590169873        1.50623306898064        1.88377468072893
H            1.38714059264549        2.07782982433745        1.73556619363567
H            0.53327014459872        2.65672758189390       -0.36827693613583
H           -1.57221565886514        2.87572591340094       -1.43791297673129
N           -3.69428706463370        1.46282848711319       -1.23093551812681
H           -4.51492377501823        1.05752338889022       -0.80996589333340
H           -3.80726860758006        2.39197068172636       -1.60054775338663
H           -0.14143948488235       -2.69542590848742       -0.94755646680707
H            1.87556862447291       -2.64399256995787       -2.22379039081584
H            3.78489044479639       -1.38106808691214       -1.60865387498493
