26
 energy: -42.348222733328 gnorm: 0.000865720923 xtb: 6.6.1 (8d0f1dd)
N            4.56576258442460        0.14221071271205       -0.99829320504002
C            3.51049077938800        0.01245799865962       -0.56463553910030
C            2.22395481372959       -0.14282163880675       -0.00902501812034
C            2.11298155058418       -1.06943234564163        1.12846281815010
N            1.12156945039378       -1.80132631401099        1.42467949016946
C           -0.06192522005275       -1.82620099119462        0.73885230878880
C           -0.71755801585266       -0.80268378228539        0.14603122328076
C           -2.00855044379254       -1.06979860356447       -0.51127150506746
N           -2.06828534228714       -2.24796036702939       -1.21477283599712
H           -1.20068404882313       -2.68853262455606       -1.46850090477332
H           -2.83452391895272       -2.37163551972422       -1.85583321875041
C           -3.11426850046837       -0.29724985584178       -0.37041975149718
C           -3.22337997166769        0.93425161165426        0.33455459627531
C           -2.23943743514188        1.81434252819757        0.61515358271019
C           -0.85372505812600        1.71481627395115        0.24075724426861
N           -0.19316646989389        2.92611131632481        0.10916554716811
H           -0.65053826594999        3.72391243198430        0.51814400889979
H            0.80686293095866        2.92281875627769        0.21994752261482
C           -0.17400523498633        0.55110334613675        0.01685153923519
C            1.19457928385662        0.59041828862020       -0.48694682167446
H            1.38812335617979        1.27616836043303       -1.30911312427161
H           -2.51855245903123        2.74724203004706        1.08968838731163
H           -4.23267687157273        1.21914015255489        0.60403693104562
H           -4.03262810183125       -0.67233861613396       -0.80583736236033
H           -0.55031585252857       -2.79038565081842        0.81185529500674
H            2.99835835074410       -1.17679197504669        1.74749373382679
