29
 energy: -55.949257960131 gnorm: 0.000583118494 xtb: 6.6.1 (8d0f1dd)
N            1.28190460365231        4.13816545526116       -0.58791605563140
C            1.26796683470205        3.00310523423876       -0.41773391803157
C            1.29670145481261        1.60269930492380       -0.21385535569348
C            2.51142100973460        1.01219971623379       -0.60237844494723
C            2.98407609718898       -0.25216987997316       -0.32385818426019
C            4.28604824667488       -0.61857021211470       -0.70083990437397
N            5.34459986506948       -0.96024071993092       -0.99029794702814
C            2.24222080802778       -1.17426417831683        0.50982606932851
N            0.94761247863023       -1.22120674245500        0.55757409792662
C           -0.04295719477757       -0.43706517264099        0.16851831444501
C            0.08687761738616        1.00856948858861        0.21946891247803
C           -0.95478002491961        1.84370450745564        0.66201363913081
C           -2.30537184929514        1.59691698600779        0.72177864177304
C           -3.04096179940999        0.51905953047637        0.21999009290294
C           -4.44360535372232        0.66604355692813        0.25277687210181
N           -5.58792429164987        0.76914289986976        0.27747445858266
C           -2.55002511710972       -0.69387258632190       -0.32554334414434
C           -1.20515710993318       -1.12456271497838       -0.23650104827748
C           -0.97068305664560       -2.48223226948508       -0.55289738386812
N           -0.80860371836791       -3.58539576739480       -0.82983499708954
N           -3.44083844926044       -1.53864490488565       -0.87879209503804
H           -3.14872805993105       -2.44810566587812       -1.19717584090195
H           -4.42295411728406       -1.31655678511790       -0.86259663972639
H           -2.91111906729867        2.39799986695189        1.12893640398636
H           -0.64944562749570        2.83964107232178        0.95822065356307
N            2.92675797030475       -2.05776401139920        1.25185117529624
H            3.91951611301819       -2.16238709991172        1.12557792282536
H            2.41755924423072       -2.75085343223025        1.77352467281298
H            3.20028941546734        1.67579375967679       -1.11417128094126
