29
 energy: -55.939512549493 gnorm: 0.000973730007 xtb: 6.6.1 (8d0f1dd)
N            1.48633499934174        3.33534555602180        1.57320025469879
C            0.84579244934482        2.50989489318195        1.09882122711081
C            0.02537828857035        1.46771452018565        0.60773558932036
C           -1.33387430958972        1.74199297568569        0.54956808017180
C           -2.36663900263837        0.97344393031989        0.02530793745390
C           -3.60919799114837        1.62980600344915       -0.10861523815893
N           -4.63008687725056        2.14292165381931       -0.22752808428811
C           -2.33959168918261       -0.39541733510466       -0.37080674140231
N           -3.43643885242333       -0.88563807545329       -0.97913405205819
H           -4.25049597719088       -0.30446435561935       -1.09681412468612
H           -3.50396640845777       -1.86997929350202       -1.18086879362929
C           -1.29473147584459       -1.29499525654760       -0.07201616554102
C           -1.57231966015165       -2.66580896866999       -0.26486120057063
N           -1.82183630909006       -3.77057173875579       -0.45676417459683
C            0.00296617483941       -1.02899177234841        0.41648301696612
N            0.62073962179831       -1.98975805447894        1.05696177401458
C            1.86367701951710       -2.34866098023410        1.17925281647088
C            2.90386577778010       -1.98115250307768        0.34090999181710
C            2.92431484860579       -0.79860660649532       -0.40699302815940
N            3.98608159773957       -0.57490816737543       -1.20874635002570
H            4.73474067795919       -1.24435919839895       -1.24293877447615
H            4.12448928113761        0.32551373832569       -1.63785300382555
C            1.97936914779830        0.27123008180292       -0.25874907493462
C            2.39177976763652        1.49841811550540       -0.82691520560117
N            2.76067564398826        2.43849412270547       -1.37502232754768
C            0.67650613390485        0.25310156817865        0.25731033763636
H            3.79462994602248       -2.59204243027865        0.32616011744210
H            2.04113302569863       -3.08430103791908        1.95502272023041
H           -1.61705880831513        2.73903687167816        0.86937574356890
