29
 energy: -50.344341078482 gnorm: 0.000903000275 xtb: 6.6.1 (8d0f1dd)
N           -5.21053639803934       -0.08813227762618       -0.41361429842460
C           -4.06620638718996       -0.03173523675370       -0.30078782040907
C           -2.67172873798328        0.06778898459896       -0.15466393602222
C           -1.92877394277058       -1.00736328858542       -0.60498961155656
C           -0.56433786652597       -1.24811010069405       -0.48788574631051
C           -0.12586212215950       -2.52785410222089       -0.89259205133840
N            0.21695993374070       -3.56621757644505       -1.24564449302038
C            0.46719514014661       -0.41254075580661        0.02482234035293
N            1.53337400105563       -1.05891470534897        0.42729625810433
C            2.80419211729330       -0.74523620680492        0.56003745817898
N            3.53029920890618       -1.61800116365295        1.30503558787571
H            3.08029429709871       -2.47925942577079        1.56688066059649
H            4.53244647099568       -1.61041226008862        1.23960822623707
C            3.44882840036802        0.32896672714002       -0.07047425661045
C            2.80397375023046        1.50907004589715       -0.42443257556120
N            3.57892787042659        2.52422013732409       -0.90901935416559
H            3.13458469057205        3.33699360500891       -1.29727297640260
H            4.51122877382615        2.31815090253147       -1.22022327068398
C            1.45291551059315        1.83253264139911       -0.17750073316327
C            0.34936931308821        1.03639656970196        0.10450496913979
C           -0.85436664144039        1.69409412322713        0.44768198380830
C           -2.17047405047077        1.28422282802512        0.42445894161054
N           -3.10904396043616        2.13062778211541        0.92975778684059
H           -4.08522981938175        1.93431493335577        0.78889091504285
H           -2.84439031180209        3.05330528782783        1.22412742355432
H           -0.71511314696944        2.72068836562231        0.77254078401506
H            1.23141249588351        2.88846951475027       -0.29082457724974
H            4.52405001535109        0.28728576899884       -0.17576754874173
H           -2.50119138190824       -1.81672665403208       -1.04738734369361
