24
 energy: -42.946931207684 gnorm: 0.000969701126 xtb: 6.6.1 (8d0f1dd)
N           -2.24934253725073       -2.81800592226093        0.40812380563414
C           -1.80978995682363       -1.78342482785568        0.16119229701667
C           -1.33810178417994       -0.48582613345146       -0.09929526484600
C           -0.02635944170765       -0.35706804535727       -0.58359999206763
N            0.59331296111438       -1.41260008143334       -1.07738503841871
C            1.84909760638283       -1.75007695010706       -1.01665210711427
C            2.82945160354731       -1.22880852284681       -0.18292344785973
C            2.81292782897614        0.05800885502749        0.36929635614512
N            3.85731008181435        0.41757756682424        1.15755056408550
H            3.97418417547548        1.37627131794410        1.43310856814488
H            4.62627898528702       -0.21432557419601        1.29157806378537
C            1.88147271513468        1.07272141310948        0.05555462674554
C            0.63031904748743        0.95273937692729       -0.51157346011969
N            0.02109156383875        2.03351669996601       -1.01860822734265
C           -1.24262953079737        2.30408278145656       -1.00817890877947
N           -2.20652466554305        1.81799931366428       -0.24237706166337
C           -2.20604406560430        0.59734503728324        0.26467083861525
N           -3.21047875570181        0.33358725029110        1.12461760575549
H           -3.90628689416272        1.04627425177400        1.26251530944316
H           -3.40896849841391       -0.61554283798996        1.39394909660996
H           -1.54331994962275        3.14649235748151       -1.62513631381102
H            2.17276090806610        2.08493402706185        0.30802140186878
H            3.71797400776565       -1.82344094060467       -0.02009343546586
H            2.09945083311524       -2.61464953080978       -1.62291870515970
