22
 energy: -39.510815330385 gnorm: 0.000844367923 xtb: 6.6.1 (8d0f1dd)
N           -5.09480493885342       -0.41826718431606       -0.38349333129124
C           -3.96209543540100       -0.28803191616662       -0.24838856016124
C           -2.56649687340446       -0.13266632150937       -0.08608964453996
C           -1.93124377287392       -1.12978702019658        0.67792481146963
C           -0.58980733185447       -1.35942549115991        0.83536707157667
C            0.45712427440429       -0.56626078197417        0.32597929031055
N            1.59858612682908       -1.12408171608709        0.00692393849579
C            2.79177614203513       -0.59746871786719       -0.22706243573118
N            3.34043806056087        0.45501948895134        0.39693262489273
C            2.54199684422145        1.35949374825501        0.92669022126211
N            1.30006030252167        1.61759880976648        0.63315507219796
C            0.33773900479162        0.88345893898019        0.10771019873934
C           -0.72452398486372        1.48731293723187       -0.57109621040095
C           -2.00346089442642        0.99074448139538       -0.70135727425130
H           -2.69799912142509        1.60053652453041       -1.26775999563972
H           -0.52907728218307        2.47855451755585       -0.95858824162022
H            3.01420732863828        2.06515692562032        1.60283107802254
N            3.60117008065396       -1.28736282325431       -1.04929614302431
H            3.30494890360222       -2.18049204905905       -1.40085965301283
H            4.56753912810689       -1.01751243349831       -1.09886010141141
H           -0.28574612615329       -2.28270459661568        1.30986523295338
H           -2.59982181642619       -1.86428652628202        1.11224905876412
