24
 energy: -42.954471902362 gnorm: 0.000672833124 xtb: 6.6.1 (8d0f1dd)
N           -1.00630544212733       -3.58577257038819       -1.03629958130058
C           -1.06602428492800       -2.47879546006256       -0.73619001865632
C           -1.14213643960098       -1.10952228693417       -0.41075689833529
C           -2.36382764292492       -0.46223486579445       -0.64710947911138
C           -2.77871797751954        0.78152161406074       -0.24840295027719
C           -2.02955879076489        1.83777154232110        0.32176590534951
C           -0.63973230468631        1.91343357571435        0.40436024397251
C            0.27649908429979        0.90605931839497        0.13512675220801
N            1.49947790815123        1.21423565510792       -0.25513878165291
C            2.61437841707031        0.51065160622706       -0.25211435645446
N            2.98455285319900       -0.43033580945961        0.63435293161886
C            2.05063354187353       -1.09782040298040        1.27257785016469
N            0.79891819568824       -1.25995218458829        0.94188330582058
C           -0.02295836850421       -0.53668118979538        0.21740998707813
H            2.38561510312345       -1.69727950369715        2.11295218981296
N            3.56252052420992        0.88105263936428       -1.13645747008562
H            3.42092122289195        1.70489207526966       -1.69296835661922
H            4.48415958242019        0.49829647008021       -1.02449470673858
H           -0.21447818310974        2.88729289690129        0.61272833486171
N           -2.73572823121544        2.92830451063298        0.72070484707932
H           -2.25320341595359        3.75990041303333        1.01017513485655
H           -3.71899301662520        2.99222101747924        0.52739347603344
H           -3.82658176369544        1.00565875812619       -0.40714651169049
H           -3.11506789067273       -1.08366058081557       -1.12112078163573
