24
 energy: -43.737724320407 gnorm: 0.000848791698 xtb: 6.6.1 (8d0f1dd)
N           -5.70853772269861        0.06095922034820        0.48331777565323
C           -4.57026566496330        0.04397137059982        0.33456343186847
C           -3.17361144964334        0.01407443556791        0.14566848199186
C           -2.39921709955362        0.93651699886520        0.84082663911544
N           -1.16712578829939        1.27355775378343        0.54933866754747
C           -0.25083041642668        0.67934374046861       -0.14756518825219
N            0.65234530450177        1.42025586246685       -0.78454654882645
C            1.92953434497058        1.27466120792735       -0.84242742433223
C            2.71704475909033        0.34486303533041       -0.12702286260046
C            4.08743612707759        0.62745797481055        0.01049121891152
N            5.20876979752224        0.84314106698130        0.14400654576204
C            2.25785542420298       -0.92140159846634        0.30155420863443
N            3.14838538783608       -1.75171244701942        0.88264641531121
H            4.10001026218853       -1.45516593088726        1.02306683827868
H            2.89596648634682       -2.69792904856582        1.10599839785394
C            0.97472355165167       -1.45676817944870        0.01656178318659
C           -0.18357382029963       -0.78479285784213       -0.28316241458272
C           -1.35327478085341       -1.43278506145036       -0.77749118928787
C           -2.65145646179785       -1.02562495672763       -0.66823706043358
H           -3.39760509927811       -1.64478545004318       -1.15222059193484
H           -1.17014222879721       -2.34659359079333       -1.32996394950205
H            0.90169241662243       -2.53572861723452        0.09446756205238
H            2.44938418428555        1.99545921406083       -1.46556808239700
H           -2.85764317478075        1.52909531056528        1.62455717388893
