29
 energy: -51.134707817920 gnorm: 0.000737978636 xtb: 6.6.1 (8d0f1dd)
N           -3.80413288084155       -0.16648625796681       -2.04956441393297
C           -3.01192384804726        0.33549219134614       -1.38584907342793
C           -2.04674008474426        0.94089473779858       -0.55342914246714
C           -2.14510296013340        2.28482177346941       -0.35000300147726
C           -1.28466880852564        3.10531428097512        0.41114431389795
C           -0.00462209825662        2.80647057899235        0.76511841360504
C            0.74821617637862        1.65023215902813        0.42927257851287
C            2.13029323138947        1.77681022838584        0.71173982107589
N            3.22400226792910        1.90276621362428        1.03768149205663
C            0.31847429279843        0.39879163410198       -0.00302392502787
C           -1.07362901729922       -0.00790547777333        0.00453025725812
C           -1.53068352518434       -1.22416234826468        0.38552888502148
C           -0.79294476781415       -2.37722752945428        0.82067881298661
C            0.50051065014033       -2.67206864015445        0.47065220233525
C            1.38518658531574       -1.89637180073795       -0.31725830286641
C            1.29962333232405       -0.51424439249511       -0.52115684767792
C            2.30775813455459        0.07089089961237       -1.31016846096435
N            3.10372427870910        0.49246329663766       -2.02617808116579
N            2.44277925288094       -2.55037622940060       -0.85170820838128
H            3.15888471695100       -2.03425238893196       -1.33509129851666
H            2.60566290971898       -3.51615648893213       -0.63252857654312
H            0.87005055404629       -3.65010616883988        0.75438339596111
N           -1.49631161532682       -3.26871422194528        1.56353853389338
H           -1.09629158229360       -4.15890009474022        1.79958057806512
H           -2.47846786700111       -3.13262267917918        1.71836523303327
H           -2.60648539559684       -1.35633277414597        0.39210580487310
H            0.55862940996394        3.56978695358895        1.28861587125153
H           -1.65848854700273        4.08872720967925        0.65994250084761
H           -2.99667604273602        2.77728350082029       -0.80525493172798
