23
 energy: -39.996697063077 gnorm: 0.000508693050 xtb: 6.6.1 (8d0f1dd)
N            4.74092660582385        0.89849739141425       -0.79077583047128
C            3.64415709303639        0.72200203762561       -0.50523488544695
C            2.29041147535411        0.52176540696936       -0.14857145039825
C            1.67933131850468        1.58453424188771        0.61676829719566
C            0.37150624836308        1.83184590629943        0.75456698342876
C           -0.75734843244710        1.11921890855003        0.15448828728293
C           -1.80266445719087        1.85273109593207       -0.31137683049550
C           -3.00352759173096        1.33303090735094       -0.89383891011616
N           -3.62699783661011        0.26390896228279       -0.57013063642662
C           -3.19913901700194       -0.63941824944966        0.34366812743046
C           -1.92808092076610       -1.00223398127027        0.62264240131804
C           -0.72121696378131       -0.33512883865464        0.16796237702286
C            0.39229315989783       -1.09513635338825       -0.11518314681150
C            0.21480689375226       -2.50002502839875       -0.16557897285653
N            0.09899512564502       -3.64023524845158       -0.21307003820713
C            1.71157291104764       -0.66780218354292       -0.46374404169022
H            2.32536676606119       -1.41285237649719       -0.95688231639641
H           -1.77133014012761       -1.88682049434249        1.22779624191491
H           -4.01349691203492       -1.20684870183254        0.77934954579077
H           -3.49169285830943        1.94416140941722       -1.64727511312339
H           -1.68762883442674        2.92957274577023       -0.33028926151272
H            0.07793676734784        2.68391183648295        1.35574202910723
H            2.38025234549339        2.25998349204599        1.09174491216085
