20
 energy: -35.263991010680 gnorm: 0.000779116334 xtb: 6.6.1 (8d0f1dd)
N           -3.16147817439391       -1.07439484979966       -0.90028694554436
C           -2.15483850056464       -0.50601148827509       -0.20222516243710
N           -2.46463808889237        0.67737467668127        0.33304068865968
C           -1.63303514490363        1.52574339164780        0.88637025832651
N           -0.35630511961370        1.70874829714290        0.66712302845749
C            0.41059474189304        0.78922798505634        0.10995871792569
N            1.36923314824784        1.04793725263798       -0.71339824653279
C            2.48818177657676        0.41886600111193       -1.01001945032286
C            3.16455141882663       -0.44686587177048       -0.16932828536886
C            2.50881187933099       -1.07390181128329        0.89789683835938
N            1.22207781075362       -1.25742049391597        0.99437688019201
C            0.21072423293177       -0.67283558855603        0.40396408189358
C           -0.98247838754513       -1.25721088260552        0.03082949310687
H           -1.01620999437441       -2.32907622185996       -0.11183347679628
H            3.08871559050771       -1.57379338918413        1.66603011307432
H            4.20834696688697       -0.65861005739980       -0.34365370116532
H            2.93558603758826        0.73789504417198       -1.94482299170144
H           -2.10520159196640        2.27971004526155        1.50901331092498
H           -3.10483635490917       -2.03005596590135       -1.20209735979102
H           -4.04107285898062       -0.58933241256056       -0.94214167766012
