25
 energy: -42.666202568447 gnorm: 0.000385609584 xtb: 6.6.1 (8d0f1dd)
N           -5.02189967484656       -0.16582057376648        0.34778779204017
C           -3.87281255796139       -0.20009095643991        0.28076568787400
C           -2.47052389058060       -0.22049946305248        0.19641841338314
C           -1.84533068323093       -1.40227573427707        0.60684806220555
C           -0.53102028440717       -1.78175599512132        0.50885367627026
C            0.59712483708064       -1.05677920717707        0.06951028539365
C            0.62768120939744        0.39768622033611        0.01073295246671
N            1.74788588777878        1.06600890704166        0.27871637908481
C            3.00644579337598        0.73717862920197        0.17867384595697
N            3.57409785779691       -0.21197623495987       -0.59986267206173
C            2.94329060512013       -1.33686349613412       -0.82949627980733
C            1.70246256249541       -1.78935895919154       -0.38408975973181
H            1.52909343798757       -2.85193151334405       -0.50724731826380
H            3.54176944020367       -2.04832858747266       -1.39267795193757
N            3.89087841366343        1.50838710437583        0.84283313818963
H            4.86861927240880        1.38645011685487        0.65098907247363
H            3.56487239841414        2.31340049122058        1.34585973937571
C           -0.46879481658687        1.20887436774741       -0.27856676316000
C           -1.83802127545576        0.95743896071603       -0.28798094014044
N           -2.64830301730490        1.95335965432649       -0.72325692028589
H           -2.25911997555167        2.84321742433863       -0.97768411861854
H           -3.64655821356605        1.86511087773556       -0.63685600919322
H           -0.18889294608567        2.23389643478653       -0.49469387814317
H           -0.32614752126021       -2.81521916120708        0.76350695862487
H           -2.52639791408714       -2.15727261723573        0.98471773580384
