35
 energy: -61.449269535381 gnorm: 0.000971915094 xtb: 6.6.1 (8d0f1dd)
N           -3.33900454191672       -2.38814474582466       -2.61446806502645
C           -2.83063681423543       -1.68298133445816       -1.86220054481462
C           -2.17505630740189       -0.84836431753708       -0.93494662200060
C           -2.63516304930829        0.42441891813381       -0.79598799138473
C           -2.15533329951921        1.42367026749553        0.10335302606966
C           -3.05153644502684        2.45785311454697        0.43094929413846
N           -3.75457548091697        3.32181960070389        0.71796984717992
C           -0.86443482750750        1.51548313450371        0.59455251352067
N           -0.52298450912019        2.47972550214527        1.47404936454662
H            0.44778000513828        2.62868991571302        1.68752012746558
H           -1.20712827799513        3.15247407701724        1.78062306418525
C            0.19706039170937        0.59635115985760        0.17818475046123
C            1.39130279048621        1.04677206747224       -0.28514802420669
N            1.60871509506068        2.40783991087796       -0.49977312962497
H            2.40691256503353        2.60869349597600       -1.08586367183747
H            0.79251723798803        2.94136942211134       -0.76283066826850
C            2.52642781619759        0.18691455956260       -0.57590688226016
C            3.40066581151423        0.64509548954013       -1.57164579973109
N            4.11253536300666        1.01288240375620       -2.40086826347748
C            2.89608278971458       -0.94945233446460        0.12521099787876
N            4.11513523866048       -1.50928345878116       -0.12082367018533
H            4.65190097636329       -1.18346055700893       -0.90683841049550
H            4.32748103631420       -2.41666824487330        0.25165811437263
C            2.15459458442651       -1.53195987438872        1.20003263877079
C            0.81112831710836       -1.47411965256658        1.37710873145457
N            0.21216472141216       -1.99257431898245        2.48465600786151
H            0.75892066915506       -2.51746125573358        3.14542643497973
H           -0.77953416639287       -2.15402649344679        2.46066251961720
C           -0.09783313087648       -0.82236082906030        0.41561012939920
C           -1.14721537212254       -1.48810767774197       -0.11629114417100
N           -1.35959087142037       -2.84378373732382        0.15766051036562
H           -2.00375885288125       -3.29202154590604       -0.47931893839311
H           -0.51561029513324       -3.38293948498203        0.28968105540640
H            2.73576982455340       -2.11470763507183        1.90434993141034
H           -3.50468124206140        0.70461134383306       -1.37997905540525
