25
 energy: -42.666539309979 gnorm: 0.000503234031 xtb: 6.6.1 (8d0f1dd)
N           -1.83114532662334       -2.75822170983566        1.75764619360902
C           -1.74481603605004       -1.74154782268267        1.22845410455742
C           -1.64585201695183       -0.48271009376280        0.60243261899276
C           -2.80011741695501        0.30413371175440        0.57481004875986
C           -3.02925896147598        1.47058893748376       -0.12134074433782
C           -2.10578236616409        2.24701475123336       -0.83104992773437
C           -0.73863198655432        2.15286923667178       -0.85682337071000
C            0.07197095106546        1.17284245021798       -0.23875075111081
N            1.28544623978740        1.50489259647367        0.11000208877467
C            2.34755258326401        0.78261083929216        0.45990660775282
C            2.65480650675941       -0.48642990296341       -0.03083324646431
C            1.66543881711568       -1.30413121595601       -0.59187606921864
N            0.36837906469224       -1.19843030898150       -0.35243902287478
C           -0.39306126016316       -0.19660573358402        0.00517410114870
N            2.01898578121244       -2.37119813027495       -1.35718887076887
H            2.97280227506411       -2.68650099517835       -1.34028455223749
H            1.30347196089465       -3.05222956091685       -1.54761087864679
H            3.67218580877181       -0.84442494253010        0.02123507065173
N            3.23439332137959        1.43808053136017        1.25477362847859
H            4.16476520617858        1.07685086992458        1.36271812601307
H            3.07468085006334        2.41479918610905        1.42911768437130
H           -0.18778184434822        2.95265010529106       -1.33442209940315
H           -2.52718540391330        3.09412604277794       -1.35958700697438
H           -4.04679978799861        1.83835574397713       -0.11389926091959
H           -3.64823820515018       -0.11867401170351        1.10176150818694
