22
 energy: -34.686967196009 gnorm: 0.000693024766 xtb: 6.6.1 (8d0f1dd)
N           -3.12892424599247       -1.29147080735542        0.82965600951117
C           -2.20299094673172       -0.50992290361193        0.22278473675147
N           -2.61513909682847        0.70345980956692       -0.06069517000245
C           -1.86271631970146        1.69132443715624       -0.55527826422049
C           -0.51096272302100        1.86908796034747       -0.55591378568410
C            0.48206951345111        0.91493572321945       -0.17168154806990
C            1.67237036593089        1.33576323456420        0.38429934579815
C            2.79742172721698        0.57783209872242        0.76184061639095
C            3.16271179301934       -0.66141502130906        0.30964814565763
C            2.44489851268117       -1.31693891778055       -0.72349765189214
N            1.19891825652437       -1.22149476234789       -0.99360628919210
C            0.22053924640503       -0.50513304569698       -0.38940526970661
C           -0.96738017319971       -1.12865669361108       -0.13181495581795
H           -0.97117810388260       -2.20852785753706       -0.21205646759810
H            3.00552958983518       -1.96853087503040       -1.38970884544517
H            4.12193133165145       -1.06739593557782        0.59617928364972
H            3.50161269775899        1.08891942197035        1.40874617470930
H            1.71502416703133        2.38815885790580        0.63904086445068
H           -0.14276308341496        2.85020778525189       -0.82986500205276
H           -2.47272992614147        2.52165580154638       -0.90140623465375
H           -4.05259213514167       -0.91403272242156        0.95057321376420
H           -2.97938772515002       -2.27760149527147        0.93874069855244
