23
 energy: -38.421123370361 gnorm: 0.000249211181 xtb: 6.6.1 (8d0f1dd)
N            3.54864115546178        0.69241624850143       -1.13806899453624
C            2.57680439117949        0.19712784187874       -0.33734193891081
N            2.77675819208807       -1.03485479719531        0.08481106764821
C            1.90868832669680       -1.64132642029935        0.89890035423797
N            0.63483635718379       -1.54091123976229        0.99588571779571
C           -0.19861963770286       -0.62496069046759        0.44269012222449
C           -1.43131294105051       -1.06485722063032        0.04291639200999
C           -2.55663174811587       -0.28110811673782       -0.34046445963325
N           -2.85212614188821        0.94897618284186        0.01142378249082
C           -2.03212749990036        1.80207720833531        0.63029717723987
C           -0.67424359520834        1.81045837565941        0.75154155821829
C            0.23954562038095        0.77024771292940        0.39602164826418
C            1.52701551882074        1.09037860248014        0.03608618113967
H            1.74602082970713        2.14524457802235       -0.08517040658405
H           -0.22109667851520        2.72387806362668        1.11750265293070
H           -2.56499189228154        2.67981399939613        0.98717405219879
N           -3.51075837831912       -0.89936366986331       -1.08183073891984
H           -3.47959264004117       -1.89217249318529       -1.22616442974016
H           -4.37898723103262       -0.41156459873689       -1.21883352850835
H           -1.55549492554968       -2.14006592054301        0.00642589230969
H            2.35961038836964       -2.41397182780336        1.51850338951309
H            3.58296993287232        1.66903263266512       -1.36691064115153
H            4.34702180914496        0.11069195268759       -1.32239507893760
