24
 energy: -43.732616456067 gnorm: 0.000674096782 xtb: 6.6.1 (8d0f1dd)
N           -4.66025877157477       -1.02271610805386        0.18901880023296
C           -3.51539177825386       -0.91718771579523        0.18547049723384
C           -2.11316504778976       -0.77103841650873        0.17884268409549
C           -1.38810278667690       -1.91951458099380        0.51182463106597
C           -0.03811427454250       -2.16447797436009        0.42298111096774
C            0.99140837783273       -1.25733824378650        0.12645158900952
C            0.85754155746685        0.18325148012538        0.29885251042357
N            1.87099945594109        0.82494263117205        0.85059438489427
C            3.15266944504012        0.71194370364268        0.76481013786598
N            3.84657366426468        0.08223436518576       -0.17288921933886
C            3.35617580353803       -1.00521750369244       -0.73667946911426
C            2.19232364621370       -1.71362803667040       -0.44464043423203
H            2.15465893674934       -2.72922083009634       -0.82120636384063
H            4.04122245528891       -1.46533160040070       -1.44208512791498
H            3.73010512481440        1.27262180420355        1.49304259164379
C           -0.27985801733338        0.93604145113271       -0.04270264538362
C           -0.04797013641300        2.32104434235320       -0.19355182010624
N            0.10118403643373        3.45001945422304       -0.34560817989577
C           -1.62146490920756        0.50978578772497       -0.19068301728577
N           -2.51643046162128        1.41648985360766       -0.62652530129116
H           -3.49810719917589        1.19187309398121       -0.63585156782042
H           -2.22549378144445        2.36269701563525       -0.81206666952855
H            0.27169378333128       -3.19316291070520        0.55646845921917
H           -2.00534515838254       -2.76890113811895        0.78269746009849
