21
 energy: -39.005575816554 gnorm: 0.000488016300 xtb: 6.6.1 (8d0f1dd)
N           -3.25157390290576       -0.70077154210803       -1.37957863372979
C           -2.40166759194497       -0.26106394587550       -0.42212183571246
N           -1.31825433802370       -0.99743490366204       -0.23844835088378
C           -0.22282205864770       -0.65963968992831        0.38614579397220
N            0.54405051077065       -1.50192790748307        1.03564259961665
C            1.84058324856703       -1.37570877694065        1.21372830695809
N            2.71850462636687       -0.73673939135731        0.48356475957708
C            2.35545703597294        0.24241103180757       -0.36696093152140
N            1.32295543990282        1.05963900702721       -0.25892477877446
C            0.19394237699234        0.78012436607862        0.35919030397766
N           -0.57194842178963        1.66541221402271        0.92228931855018
C           -1.88034461960795        1.59052712963603        1.10912386608739
C           -2.78142160233590        0.83667985484541        0.39264511931729
H           -3.83021464114787        1.09593445031279        0.43260570056728
H           -2.25537587940172        2.32078563007219        1.81771454601342
N            3.24256692146191        0.51282592152014       -1.34555720218359
H            3.13869997746548        1.36744830891011       -1.86358057953549
H            4.13943076279572        0.06201153278255       -1.29966076542013
H            2.25700017678935       -2.00807341968073        1.99158933994340
H           -4.18769866916786       -0.34041852796476       -1.42168702374795
H           -3.04872719241257       -1.57941519741508       -1.82398135987185
