23
 energy: -44.797532486846 gnorm: 0.000515311330 xtb: 6.6.1 (8d0f1dd)
N           -4.74994863710661       -1.48030360071563        0.65379576316025
C           -3.65854019066406       -1.15894456555123        0.51378138806785
C           -2.31699941065807       -0.74534837927012        0.35221517590524
C           -1.31931011305793       -1.45184619405879        0.99772340152706
N           -0.04492663598256       -1.40793636114562        0.65802867473322
C            0.70859418241295       -0.49563081881724        0.18059627816088
C            0.33756429910931        0.93052608212978        0.15818075251330
C            1.12988180737693        1.93410546086237        0.61737491473675
C            2.46169781975344        1.71515729193383        1.08593320584118
N            3.30163108985983        0.86937282173584        0.61123521312894
C            3.10167355687684       -0.08286333321709       -0.30426419132481
C            1.97193311154149       -0.83995866512230       -0.45951217252785
C            1.98462869220249       -2.00017599087805       -1.26149699023432
N            1.97843093538777       -2.93012430641188       -1.93219133518795
H            3.99545138625029       -0.35129406646933       -0.85684495607685
H            2.84859530405033        2.37102225928503        1.85895424755972
H            0.72269350088521        2.93341710571531        0.69432244585626
C           -0.94458385795496        1.16408199542153       -0.49144096100782
C           -0.95798997159114        2.31746304622186       -1.31211749038657
N           -0.95955153455209        3.26600199326378       -1.95629313304083
C           -2.08002521016101        0.40007050815402       -0.45603901239046
H           -2.92660857728456        0.76431442933685       -1.02679418367742
H           -1.56878486479085       -2.21389293460111        1.72510845556457
