31
 energy: -59.391331128884 gnorm: 0.000984265061 xtb: 6.6.1 (8d0f1dd)
N           -0.77604326306383       -3.58190877812657       -1.44462831119491
C           -0.28751550525458       -2.65249605824969       -0.98100008281757
C            0.36378806938599       -1.47856285566539       -0.52855289645015
C            1.74779175588169       -1.49505644207641       -0.71904051086761
C            2.69693459693281       -0.59542036101787       -0.28277251794860
C            4.04595244678822       -0.95431264774712       -0.48010053987465
N            5.15280540473984       -1.22183088789664       -0.63615958066899
C            2.46303604639499        0.65776415847404        0.37583768368110
N            3.53401467243962        1.23749354987576        0.96064781028166
H            4.44056513463731        0.80722513825035        0.88820595339661
H            3.45540823047304        2.15231879824414        1.37212175003652
C            1.24504270476162        1.34085654435163        0.37823361296876
C            1.28637328715007        2.63747524104747        0.92846491073132
N            1.34468400155344        3.69155135131955        1.38658032050947
C           -0.06418089403042        0.95268513942092       -0.08114595419575
C           -0.90854973533434        1.96123598407997       -0.48209694701589
C           -2.29830048352569        1.88185552672112       -0.77711093357148
N           -3.17927886509207        1.07407176223222       -0.22465850012939
C           -2.92121255839826       -0.00359380525989        0.50212760968320
N           -3.94425000376725       -0.42353987957176        1.26522512025075
H           -3.90107547445293       -1.30927079864685        1.74121152684113
H           -4.81436579210486        0.07706133529815        1.21403348149485
C           -1.74817113199525       -0.80804807730168        0.43226193575612
C           -1.86956865762607       -2.08813024341302        1.00831963666606
N           -2.02216692870064       -3.07214055158900        1.58423755223671
C           -0.47721270697716       -0.44360657437053       -0.06533746585726
N           -2.81396401264802        2.80960195030252       -1.60197718878792
H           -2.23859793659522        3.52636938113546       -2.00554335845942
H           -3.80547241049177        2.81503359621098       -1.76615931010555
H           -0.46611950885611        2.93787434574851       -0.63296113384839
H            2.13256218847921       -2.38511278157643       -1.20512552274120
