28
 energy: -45.812488237539 gnorm: 0.000744683949 xtb: 6.6.1 (8d0f1dd)
N           -1.26710524392126       -3.33771489705668        0.87117376252580
C           -1.17603886991890       -2.23169716665285        0.56091111835830
C           -1.11285537488329       -0.86790028851382        0.23300665762698
C           -2.30407665245318       -0.13109736187368        0.33258389032805
C           -2.49966425795720        1.19197177374276       -0.09131501274950
C           -1.55185315963795        2.16066799266434       -0.37395939546157
C           -0.15326568250735        2.04889602913767       -0.21647827493287
C            0.62983155812813        0.92631127380010       -0.07303233545812
C            0.14939006038544       -0.43949141800537       -0.28588360158338
N            0.83804799369417       -1.33717719682022       -0.92112577425854
C            2.12356444068160       -1.46655974604411       -1.19646142757597
C            3.16843830455722       -0.91330063971744       -0.51169787108675
C            3.05346865164005        0.22972785161448        0.32471527580951
C            1.96172349542707        1.07252742065172        0.39887733595141
H            2.12900975607818        1.99190430180599        0.95184326889500
N            4.21274922706295        0.63624536930575        0.94459605803632
H            4.13911103484505        1.34604120381522        1.65365057621033
H            4.93047014231535       -0.05369899450241        1.08605682446586
H            4.16151808998760       -1.31498681225050       -0.65738119703148
H            2.32375591456409       -2.20473099054718       -1.96570805685539
H            0.37400319773879        2.99661984085362       -0.20762029318785
N           -2.01309913942358        3.41475142236007       -0.68332832450809
H           -2.97764629081969        3.51894125429122       -0.94549411757565
H           -1.36604799046809        4.07699126615559       -1.07390452815124
H           -3.53331365803355        1.51717792360374       -0.12937629970469
N           -3.39692566734348       -0.77664854196920        0.83058493752055
H           -4.30585073606045       -0.36541246900494        0.71405775581511
H           -3.34492106427876       -1.77103232484307        0.97818073547798
