28
 energy: -49.828255434392 gnorm: 0.000889519098 xtb: 6.6.1 (8d0f1dd)
N           -4.44660241406613       -0.75990627673641       -1.70069929673597
C           -3.45515140538828       -0.48705512027715       -1.17992205901006
C           -2.27477419858384       -0.11745525270684       -0.52384305572239
C           -1.11998220053116       -0.79406224689922       -0.79336198906756
C            0.17233969844623       -0.52106465144058       -0.25955159066450
C            1.10956061841700       -1.53647363187189       -0.13718028715764
N            2.34641630171826       -1.44979528664473        0.40861870130347
C            3.07767532955164       -0.37749591772694        0.45920404656998
N            2.95190022904014        0.75741716387160       -0.27316347623181
C            1.81691041798584        1.29025052194444       -0.57020281870473
N            1.80237256716423        2.29690364554511       -1.46160367635691
H            2.66741260499426        2.59497820850846       -1.87937835272006
H            0.95477004105258        2.80423798596716       -1.63903777722514
C            0.50551077705650        0.89564873308038       -0.00808681818809
C           -0.31762544719731        1.84291306280762        0.47007510171772
N           -1.57052867388210        1.70485846083758        1.01235963836709
C           -2.43014769362391        0.85575551147630        0.59124997648789
N           -3.62197503844567        0.78278038485387        1.23460560850531
H           -3.80328675997499        1.47056964515233        1.94510523183350
H           -4.39974250634698        0.31817971290656        0.79804463274961
H            0.04516828107935        2.86321083586417        0.55256641185721
N            4.18812210780080       -0.42044954950685        1.23699614229814
H            4.89116421909443        0.28101405852642        1.08627430724365
H            4.46327686188317       -1.31513617982156        1.60151662948223
N            0.79639451291013       -2.83550355810896       -0.47771646832211
H            1.48091744503068       -3.50168675496510       -0.15677960130431
H           -0.15960563434976       -3.13617021989776       -0.39833172147912
H           -1.20284113183437       -1.63024898773740       -1.48323852702381
