28
 energy: -45.798637472619 gnorm: 0.000472690925 xtb: 6.6.1 (8d0f1dd)
N           -4.86959298557147       -1.13123008791000        0.90677428906220
C           -3.83775977425965       -0.79662219048864        0.52958756831495
C           -2.57141315853845       -0.37440499322944        0.06678170408382
C           -2.59378138026979        0.70650279632760       -0.90457615790007
C           -1.59275795285267        1.54427192640487       -1.19631207548098
C           -0.29865153758378        1.63358198442595       -0.53844659279207
N            0.22380395114363        2.92739591157312       -0.49975429157502
H            1.21782038946963        2.98153035537237       -0.33629844799313
H           -0.08903467043187        3.52702996680832       -1.24789973806470
C            0.34245238444138        0.59818772756727        0.05271262072939
C            1.57602577051923        0.82195504897607        0.84339199373874
N            1.50184890060359        1.81599361412054        1.78899342316549
H            0.58632572725630        2.16065845806117        2.02206357714382
H            2.18046900615795        1.81140548272641        2.53267411611808
C            2.73106862419576        0.16035753192316        0.61254199810131
C            2.87140240817559       -0.92183870586253       -0.33884340270483
N            1.99721058415096       -1.84005145523643       -0.58888279287276
C            0.72773870055649       -1.84664509541741       -0.12251409344560
C           -0.11165159937574       -0.80054288645802        0.09201193957052
C           -1.48039273512820       -1.06453973447295        0.47566506003984
H           -1.64176991339757       -1.92704221449595        1.11530809109248
H            0.32214191816384       -2.85062396814207       -0.04632949551216
N            4.07725865930909       -1.02783485456828       -0.97316313406058
H            4.23969161231550       -1.88575104274196       -1.47370502654745
H            4.87733361739149       -0.56873057000253       -0.57433756785790
H            3.61537006519354        0.44062040036319        1.17251988204942
H           -1.78227313470113        2.31942706623547       -1.92994445152852
H           -3.53995026513398        0.83000816504131       -1.41691456617515
