30
 energy: -49.251392487219 gnorm: 0.000707190283 xtb: 6.6.1 (8d0f1dd)
N            4.81441931871155        0.47109432537937       -0.54067764737553
C            3.75804118778965        0.15395611113432       -0.20962737691940
C            2.45851529980682       -0.19671602043778        0.19340312118946
C            2.36788030861195       -1.21468248404348        1.21449783302674
C            1.33580685143582       -2.05160604748659        1.42089745110250
C            0.10542498458017       -2.08358745081017        0.68099945989996
C           -0.49177580140727       -1.04637632318623        0.06368120123862
C           -1.71432501694434       -1.26297616065627       -0.73356141440766
C           -2.83459949079950       -0.51788489737273       -0.58737336099268
C           -2.97454255727188        0.60230166456815        0.30782954763777
N           -2.06706347191437        1.44208023668473        0.68919495128304
C           -0.75871075463815        1.41883771871706        0.30758269682328
N           -0.20599258355641        2.70781560089811        0.26759851290013
H            0.72865389879374        2.77628759579097        0.64771957971607
H           -0.83582659858348        3.37403189845350        0.69382331996561
C            0.01114019811530        0.32629631588084        0.04611417750775
C            1.40911137999767        0.47419063373147       -0.38672587978945
N            1.60306759524842        1.30012224616411       -1.45106404532230
H            2.54756987543794        1.50755013529322       -1.73579516974497
H            0.88986460415547        1.98234403308141       -1.64921931063241
N           -4.25351082474555        0.89700755765804        0.69480082899363
H           -4.34524268188895        1.60754117646501        1.40112458577127
H           -4.94153808040872        0.16480293790204        0.68691906203612
H           -3.72118953627815       -0.80046563009928       -1.14096860317385
N           -1.68029422450026       -2.33772243131736       -1.57909118841205
H           -2.38127727817292       -2.40560845241170       -2.29823652709952
H           -0.78372152287145       -2.74663902662280       -1.77970243557513
H           -0.39874246694334       -3.04241847417219        0.65576329687989
H            1.45438790009210       -2.82998148797406        2.16373595080635
H            3.27348861894791       -1.35789489511129        1.79156053856613
