30
 energy: -54.872750157183 gnorm: 0.000680506505 xtb: 6.6.1 (8d0f1dd)
N           -2.09136384440523       -2.23338332239039       -2.04319385984665
C           -1.99260972547935       -1.37994616672336       -1.27743238039929
C           -1.92304361358251       -0.24944535025558       -0.43869633346432
C           -3.14939603023228        0.37320531193009       -0.14030139230828
C           -3.31661251741784        1.46411434136697        0.73910965587288
C           -2.36101318089018        2.34485239312389        1.18027890405269
C           -1.01992478152613        2.43103015963494        0.82129802283906
C           -0.22816365830143        1.49695227797668        0.16597982962137
N            0.91225923395227        1.93606899507114       -0.35933993359944
C            2.06379119178657        1.37480221679653       -0.56781072502922
C            2.54222030730867        0.18261017884266        0.08034897770279
C            3.92924923816026        0.03319144688125        0.19325303577440
N            5.07361605782994       -0.06768852268483        0.28265601509240
C            1.71257870764018       -0.86339083280906        0.49518377410092
N            2.28887106070660       -1.93581451094508        1.08144441143448
H            3.29178380602048       -1.98328298216960        1.14950585365473
H            1.74624058095551       -2.76268599151913        1.26723956515206
C            0.29708780521818       -0.92829491728698        0.26433926446448
C           -0.26316792097488       -2.20500392378294        0.48439518358436
N           -0.66195964801882       -3.24869211322175        0.75932977955993
C           -0.61480599141033        0.10250228331301        0.00601025412852
N            2.91228541982587        2.01921455415806       -1.39727268437047
H            2.63476317838821        2.91231425828377       -1.76458673054300
H            3.87613610096514        1.73862459814891       -1.45173003756122
H           -0.50339134919861        3.34478159860928        1.08269877421713
H           -2.72025502748131        3.14421120758104        1.81669675219486
H           -4.33856391349796        1.65765544317899        1.03916317296081
N           -4.27440761759903       -0.15780552421010       -0.67646571840580
H           -4.22418785644848       -1.00131796913724       -1.22278955108140
H           -5.17504328250320        0.17727661636226       -0.38572489379444
