25
 energy: -42.647446424789 gnorm: 0.000641657444 xtb: 6.6.1 (8d0f1dd)
N            4.64461346852393        0.47745137844898        1.09983482809861
C            3.59738801870732        0.29928882644720        0.66624889004071
C            2.30729033398367        0.06772436657224        0.13076524573353
C            2.22503454143713       -1.05008233287943       -0.79663268577136
C            1.13608023994496       -1.76395136636378       -1.10551453766401
C           -0.19234897479723       -1.60645782384313       -0.53747801690102
N           -0.93646109703907       -2.78157268492669       -0.43535229753322
H           -1.93634184382354       -2.65173034215312       -0.38481459534401
H           -0.66843264628595       -3.50535762252798       -1.08502301825430
C           -0.68483966716933       -0.43462041012111       -0.08268265091836
C           -2.01521948699058       -0.33669909286364        0.59318270488447
N           -3.00332998824376        0.33736374898225        0.12390650931300
C           -2.88036136169904        1.31733806580026       -0.79167147780439
N           -1.92350157593947        2.16780365794919       -0.90643710439883
C           -0.71206205453765        2.02951893723237       -0.31823411600924
C           -0.04275420346979        0.87667637146298       -0.02861422981344
C            1.32232387823832        0.93514402037317        0.45735625322253
H            1.57424171096553        1.77463202509988        1.09704367590265
H           -0.18348915748398        2.97084456770955       -0.21066106449148
H           -3.77499978043671        1.50428907353453       -1.37465033881019
N           -2.14186062314801       -1.00154664378397        1.75695201384341
H           -2.97281127978596       -0.87748282552438        2.30958480901070
H           -1.43308726503267       -1.64707555618674        2.05534832219680
H            1.25121312393180       -2.60242079949816       -1.78201107589475
H            3.17195166145260       -1.33301693134112       -1.23921563413694
