23
 energy: -38.441197889011 gnorm: 0.000170317667 xtb: 6.6.1 (8d0f1dd)
N           -2.53443579318369       -2.02313731332198       -1.03218487058970
C           -1.81979427811128       -1.08944552362421       -0.36199113924503
N           -2.49625334559686        0.00057942510377       -0.00028576486659
C           -1.81962150423834        1.09032952958594        0.36195108465420
N           -0.58744861625690        1.44073678309938        0.03725112060122
C            0.48039518158036        0.70126785212019       -0.20742705302601
C            1.56826577487650        1.32147977267535       -0.84120068824959
C            2.90112395162225        0.97406241452326       -0.77798026800704
C            3.51161622668087       -0.00068513019625        0.00178542334263
C            2.90019404784794       -0.97516297809951        0.78117358344221
C            1.56714600032259       -1.32198307461748        0.84357404884379
C            0.47995714792946       -0.70131667279475        0.20908178896805
N           -0.58800709201470       -1.44035300072268       -0.03634148879059
H            1.31500568981090       -2.23237240439276        1.37283571790888
H            3.57264596524443       -1.60929588398790        1.34767738442691
H            4.59398929505572       -0.00089085895699        0.00219625187467
H            3.57421844396321        1.60801670103785       -1.34383486100232
H            1.31687808210118        2.23201971226137       -1.37053984464256
N           -2.53439973076966        2.02429298035516        1.03162268080670
H           -3.52907237139952        1.89715028121404        1.08749147288236
H           -2.14484246484522        2.94554769147446        1.12325218214626
H           -2.14517388214923       -2.94454665538674       -1.12350808388818
H           -3.52901197587002       -1.89559176324898       -1.08883496909047
