24
 energy: -43.730897269210 gnorm: 0.000941026363 xtb: 6.6.1 (8d0f1dd)
N           -0.26833219004309       -2.94248231340373        1.62132605890992
C           -0.65935550815397       -2.05502175023663        1.00717393044225
C           -1.18263888248319       -0.93786733088265        0.31716647358575
C           -0.21216653205294        0.06279055635967       -0.05076070586940
C           -0.72092134534968        1.43086820966926       -0.00769584245876
N           -1.81967689642454        1.70656000049216       -0.66506016985655
C           -2.85944251942080        1.01282505420318       -1.01988557169442
N           -3.35018226002794       -0.05781185054473       -0.43104017328432
C           -2.57221753839305       -0.87487961861807        0.26028362563877
H           -3.11118009545539       -1.67815610140758        0.75254277593316
H           -3.46098865340388        1.44139406491090       -1.81468481779583
C           -0.06123233205000        2.45361312979611        0.69636709685446
C            1.28573820963583        2.54226717662105        0.95743505660018
C            2.33000062348007        1.74380460218638        0.50237592523982
C            2.27814080746039        0.52473557874812       -0.16803978205526
C            1.10396933788079       -0.29234665404005       -0.30105693319299
C            1.33398340721000       -1.61609996693540       -0.74148053319281
N            1.57378454107854       -2.64731340604207       -1.18776579319249
N            3.43478710959787        0.00504032262048       -0.63313948774004
H            3.45744416399495       -0.92676291369544       -1.01373787148171
H            4.30542421854691        0.47064834377590       -0.44663345301209
H            3.32781098199221        2.12476501718548        0.67976749670864
H            1.59475847608408        3.42051236718332        1.51075883078050
H           -0.68907063940314        3.28302838165566        0.99193503953275
