27
 energy: -42.080540912999 gnorm: 0.000569740636 xtb: 6.6.1 (8d0f1dd)
N           -4.35867794886371       -0.74999910282759       -0.41988561707217
C           -3.32245944054619       -0.30800935825985       -0.18552020338255
C           -2.04092951685224        0.18876573335175        0.11369314509551
C           -1.99435747456761        1.37824702549185        0.92832560267245
C           -1.00884398585589        2.29585743886871        0.92876022534970
C            0.20282550912828        2.24712916591548        0.16504634156227
C            0.86680716253689        1.14792492645803       -0.24510793468744
C            2.07072779362676        1.26600382666529       -1.07200563043728
C            3.23161007996492        0.64313487910729       -0.83922283453755
C            3.50251439840627       -0.27901791398792        0.23188737916524
C            2.61233815297183       -1.08152629735709        0.84030067553753
C            1.20560203541041       -1.21018567742787        0.53477435841755
N            0.66198375187623       -2.47781635205880        0.77856205133011
H           -0.32370593144233       -2.48053826255534        1.00058235640968
H            1.19781716595121       -3.03405430987309        1.42849536626675
C            0.42882474056486       -0.21958302586198        0.02398576948558
C           -0.96195216726808       -0.49833014450907       -0.38408765379853
N           -1.10855363400494       -1.47794519315530       -1.31715980176396
H           -0.35424578761085       -2.12630464770564       -1.46131039319172
H           -2.03539778205148       -1.74859084523820       -1.60359415816652
H            2.98509916588309       -1.78630523957610        1.57512091939234
H            4.54316289426325       -0.36914648995329        0.51599179684074
H            4.07491085536581        0.86369156246231       -1.48197162344892
H            1.99874760261907        1.94869216853163       -1.91057930697102
H            0.64918383288096        3.20788507882366       -0.06216964221541
H           -1.16252979695136        3.20024430739581        1.50337350689740
H           -2.89551532002527        1.58099157057970        1.49351110384796
