25
 energy: -46.695118063528 gnorm: 0.000948857186 xtb: 6.6.1 (8d0f1dd)
N           -0.63006271832718       -3.53053622518808       -1.67291159668659
C           -0.87528646130409       -2.48965978024925       -1.24979234005953
C           -1.16708032221802       -1.22097929311469       -0.71685436777004
C           -0.06817963701715       -0.51314088985995       -0.12648579640490
C           -0.16217446436397        0.96399060152710       -0.09586604458165
N            0.82658404352879        1.69642070003210       -0.56962835309040
C            2.10596847113638        1.40838260620588       -0.58703356254209
N            2.77854658507636        0.59347933422144        0.24107442727214
C            2.27462217209017       -0.52033878355467        0.72671605179924
C            1.04796581188289       -1.14860331818414        0.34666840970100
H            1.00304655669045       -2.22470763976692        0.46521153560266
N            3.07096081787651       -1.18871233311310        1.58661593008472
H            2.83611030069949       -2.11707022310546        1.88650574323585
H            3.98802805244889       -0.82237727221290        1.77199143557282
N            2.87542395791411        2.11772791675532       -1.43639220058085
H            2.45413028685362        2.87115109103314       -1.94935924411171
H            3.87261446729651        2.07282316903869       -1.33143771584616
N           -1.21170225798641        1.57612453406473        0.38449000816874
C           -2.44976465154378        1.12881940601894        0.50444287080432
N           -3.08211776369937        0.24171860403230       -0.26634473673765
C           -2.47047255968636       -0.75619126165707       -0.86792829486131
H           -3.13480329760189       -1.35856289687577       -1.48147153985094
N           -3.21931492365948        1.74282432277912        1.42858155381087
H           -2.85874475610607        2.56056821134748        1.88672858847118
H           -4.21129224978488        1.58899271794214        1.38787752530778
