24
 energy: -42.137019355545 gnorm: 0.000842603224 xtb: 6.6.1 (8d0f1dd)
N           -3.51347363727972       -0.10482687440902       -1.20465931027143
C           -2.37472599596293        0.02801717800304       -0.47185229277364
N           -1.97653010295313       -1.11615861856731        0.14628315257112
C           -0.75459635223139       -1.44244284668090        0.37523152703005
C            0.41712064276767       -0.75398921898049       -0.21968604664723
C            1.38934913815314       -1.43003163200723       -0.87634324038995
N            2.48623108115940       -0.90174003726240       -1.50017010340829
C            3.02334214137028        0.19783810743440       -1.12144689063489
N            2.85667075712127        0.82977695904856        0.06870532898758
C            1.75932735296096        0.98546682452063        0.68122059621734
C            0.43443433624447        0.66078350735139        0.12744350162304
C           -0.65408017927793        1.48345094315323        0.18295514535936
N           -1.88334928254256        1.22084438879248       -0.34082057539872
N           -0.54934388446266        2.76212187698098        0.70636003136217
H            0.36127150657722        3.19107561236956        0.65966755570913
H           -1.30700266941438        3.36333909368227        0.42141611873335
H            1.81859625912073        1.34243070006850        1.70907272692279
H            3.84550717101299        0.57890934372717       -1.71684226657341
H            1.27312337949288       -2.49437892319126       -1.04956533448115
N           -0.49504216390936       -2.45903951340019        1.21923519183192
H           -1.25914863336546       -2.93228795274226        1.66999363573251
H            0.43963733549810       -2.81382402653073        1.31229353304116
H           -4.05600243920720       -0.93851704004978       -1.06149328591078
H           -3.99745324467251        0.74360546658904       -1.44218788343213
