23
 energy: -34.396596915526 gnorm: 0.000496153849 xtb: 6.6.1 (8d0f1dd)
N           -3.27979571677104       -1.35496527523866        0.80141027880933
C           -2.34399008924721       -0.51281896292253        0.26819885598162
C           -2.68400225135849        0.78875505118040        0.00800832049602
C           -1.83854318542174        1.78838093882583       -0.52398874593643
C           -0.48693568378450        1.82445035273262       -0.59032029778109
C            0.47604871971329        0.85196328241453       -0.12912226919293
C            1.67876401128129        1.32085347257475        0.33426404103431
C            2.77318001973001        0.57415888816083        0.84786355234329
N            3.16670811517301       -0.61606469145795        0.55798850451651
C            2.52310663285931       -1.40828651035154       -0.34191347631810
C            1.21992938056928       -1.44816457790886       -0.66945823244718
C            0.14562547081373       -0.56015180048243       -0.21971326177422
C           -1.07847796737373       -1.11562858925570       -0.04098711583003
H           -1.11467331493360       -2.19844773721643       -0.10960061713380
H            0.89618059965283       -2.24174214355104       -1.33318475118363
H            3.18433003145843       -2.15767264647893       -0.76693409342899
H            3.42124267086106        1.09921883373012        1.54638751647970
H            1.76822395446083        2.39672901366351        0.43220130226824
H           -0.04152557113503        2.72891697113279       -0.98802670424721
H           -2.35624200194041        2.67472381148278       -0.87332084563829
H           -3.71424396430716        1.07373099961981        0.17906552911858
H           -3.11748624763274       -2.34625326680923        0.78233060334606
H           -4.23525611056730       -1.04795742894537        0.85450936561848
