23
 energy: -39.219501430125 gnorm: 0.000441136613 xtb: 6.6.1 (8d0f1dd)
N           -0.45735847879857       -3.33830434272603       -1.10014575331220
C           -0.77806704274909       -2.28735819471104       -0.76584257450517
C           -1.20078846503385       -0.99792827805537       -0.37246626205673
C           -0.14581951330267       -0.12248529008903       -0.00889755999540
N            0.99588271415664       -0.71318814235572        0.29476637211155
C            2.24156885839843       -0.32432340059573        0.23354666880664
N            2.76611902400958        0.65481695083446       -0.53980404368920
C            2.07052001111190        1.73816377059055       -0.78215789383111
C            0.79252115185697        2.11609077289787       -0.36619591296768
C           -0.27826305627065        1.31937247024086        0.06155139368267
C           -1.45786507536594        1.96990374888715        0.50146379603214
C           -2.74779508331224        1.51198228551002        0.57328721166568
C           -3.27958364915983        0.29643231826737        0.12744445702615
C           -2.58281251503940       -0.78841636639822       -0.35213177142383
H           -3.17138219439339       -1.63207585184310       -0.69466269859879
H           -4.35699160835628        0.20774886601947        0.15471197023556
H           -3.47323371859218        2.21887311265853        0.95867679839406
H           -1.30676892612301        3.00445489852833        0.78859046728002
H            0.56040710395396        3.16695126047568       -0.49103506928892
H            2.63852251584687        2.48811221346887       -1.32623071758445
N            3.13990732245026       -1.03122703119745        0.93871575627368
H            4.11526469378229       -0.87124157720156        0.75853904685079
H            2.84240144403042       -1.86638266640792        1.41164792979367
