29
 energy: -55.167414457697 gnorm: 0.000758260728 xtb: 6.6.1 (8d0f1dd)
N           -5.07835295435305       -1.71169730690273        0.28920467804221
C           -3.98113934461008       -1.36801670569103        0.26917202591261
C           -2.64289535098243       -0.92784847952507        0.24312106320266
C           -1.70669583591276       -1.79703143055850        0.81916984249773
C           -0.33763911761123       -1.75336554515643        0.80011250316208
C            0.52216339882965       -0.74305278047853        0.31813131186630
C            0.08919828886662        0.64141090936369        0.17236629575568
N            0.88389686662029        1.64132696730129        0.51040986777212
C            2.18937326481111        1.73272541434805        0.57738854789941
N            3.09009518432749        1.03547991512023       -0.13024415309387
C            2.89943618591481       -0.21688602706136       -0.47387455678486
C            1.83734388967446       -1.09155458416028       -0.02839562292982
C            2.16572293089269       -2.45748853240380       -0.07322623285311
N            2.49936697361187       -3.55818235950243       -0.12904032236764
N            3.85938603828547       -0.75730019552957       -1.24536343814528
H            3.87831438834019       -1.74593797427122       -1.42992187709328
H            4.65628695896192       -0.18835452862092       -1.47282311497374
N            2.68720131589919        2.72736374269950        1.33341272034863
H            2.04910146547591        3.40147839260395        1.71846496861422
H            3.66010648612954        2.95785375310305        1.23648541094919
C           -1.18259635110576        1.03551955725011       -0.29207299876770
C           -1.23236520416600        2.38703353991392       -0.70056333926897
N           -1.31028788777622        3.47577957995756       -1.06016195923430
C           -2.40415671363113        0.32625772988067       -0.36536043420693
N           -3.44030823820352        0.93075992320881       -0.98663573353876
H           -4.35718311714339        0.51728334714218       -0.94626309679857
H           -3.34178356931460        1.87231716836757       -1.32838955634530
H            0.16491251709244       -2.63910288514972        1.16947470735998
H           -2.14170131322456       -2.68381554105044        1.26577800561736
