25
 energy: -47.471921628650 gnorm: 0.000990899391 xtb: 6.6.1 (8d0f1dd)
N            2.48521424028666        3.18160625019039        1.17182805279637
C            1.56718614621326        2.54179252729595        0.91413617922166
C            0.44213321496982        1.75040939787193        0.61320185423116
C           -0.83042124110395        2.31424788238328        0.73437405689086
N           -1.96282154556987        1.91954961890345        0.21895629259700
C           -2.28845629631908        0.74958740316454       -0.32251568175838
C           -1.66541609783191       -0.50254381670941       -0.07591042684656
C           -2.41257361315019       -1.66733548525886       -0.31483619816466
N           -3.05212886276280       -2.59195238504728       -0.55664082750368
C           -0.34979285025012       -0.63600417651111        0.40233086027524
N            0.04826851637340       -1.68404385053447        1.05972726503618
C            1.22525418502276       -2.23475807318339        1.25533434196807
C            2.31784625446795       -2.13066721995869        0.42066593759743
C            2.40682337435514       -1.08613553039998       -0.52633970869663
N            1.78214209841431        0.07072278909713       -0.38565625547779
C            0.67020796472788        0.42218359075286        0.18043206953818
N            3.27322857096405       -1.16668199686390       -1.56155136894604
H            3.94405019106707       -1.91326227890124       -1.59101441169895
H            3.45092717190609       -0.33805818250459       -2.10232472809169
H            3.11999890260033       -2.84888751121998        0.48756513161073
H            1.24746284544446       -2.92672716754226        2.08942399245628
N           -3.41407386431655        0.77542762492634       -1.06418252303509
H           -3.84025885106130       -0.08392684910627       -1.36837257433245
H           -3.93661130768637        1.63376367846067       -1.10011540733507
H           -0.89383555836013        3.28593383879510        1.21607086836751
