27
 energy: -46.104984184842 gnorm: 0.000493959275 xtb: 6.6.1 (8d0f1dd)
N           -1.45340900409254       -3.37549699725891        0.71385399528803
C           -1.28688635503884       -2.26053405841006        0.47787636675561
C           -1.12092681464724       -0.88828122369909        0.23123284218905
C            0.13313487031517       -0.49713922138326       -0.28522260318494
N            0.83944185749992       -1.34099767821823       -0.97956178036093
C            2.12108853429057       -1.40681095152545       -1.28094339782430
C            3.15697830515894       -0.87560911206384       -0.55284268875336
C            2.91901089722358        0.12233376990828        0.42688569852536
N            1.89237451742338        0.93740538481975        0.44175533834492
C            0.67932672804556        0.86311774965131       -0.08145950171340
C           -0.01937848892365        2.01619106617356       -0.37007565504658
C           -1.41181482009662        2.16800106640817       -0.46606912500795
C           -2.38347076335140        1.26085925221567       -0.04639575190139
C           -2.25452303057988       -0.05749918955264        0.39171046239493
N           -3.35585540679816       -0.62918876078070        0.96007676164864
H           -3.35722233635081       -1.62638151752968        1.10062001362715
H           -4.24721141199956       -0.17571170016686        0.86018110902473
H           -3.39593401174318        1.64940889310209       -0.02265892549766
N           -1.85773347487082        3.37404804841684       -0.93370947520611
H           -2.81593498274600        3.63436552898377       -0.77701702591263
H           -1.19549062621866        4.12331650828756       -1.03292146198398
H            0.57197147784448        2.91915534635019       -0.45663077393312
N            3.86748789356904        0.35259070361672        1.37667596921710
H            4.78183344884816       -0.04637120073536        1.26348816226337
H            3.77429234039984        1.17879479282433        1.94144360136437
H            4.16533390452734       -1.23127165191708       -0.70221044642977
H            2.33299415501128       -2.06310964891315       -2.11823052308792
