27
 energy: -46.105745190084 gnorm: 0.000426022447 xtb: 6.6.1 (8d0f1dd)
N           -3.89228902216372       -2.05636130688696       -1.77789664611454
C           -3.17556059722989       -1.32448084456275       -1.25637466325900
C           -2.29219843773862       -0.44333496691197       -0.60386715068720
C           -1.11157350138861       -1.04796543821941       -0.02730210153322
C            0.02554380522890       -0.40794116308209        0.27621646846146
C            1.16052055441967       -1.09348231197271        0.95088237159471
N            2.33313111716865       -1.21900097411639        0.44525243108268
C            2.76623198614434       -0.54093232418724       -0.65526297761187
N            2.53428345812051        0.69843518390419       -0.95981694707108
C            1.52818810986444        1.42964639236509       -0.42881440601882
C            0.34229460630169        1.00465835980155        0.07932348588306
C           -0.66763447425765        1.96209314642176        0.55221054476451
N           -0.19688638438551        2.96940421398549        1.33819873106183
H            0.79215188032345        3.14433024282319        1.36578615624863
H           -0.81428478711761        3.71672671934212        1.60547809894778
C           -1.99551658272288        1.88795111525988        0.24395578015988
C           -2.67192546283595        0.86059055316119       -0.45487021894633
H           -3.64697824060260        1.12811840808542       -0.84590333975827
H           -2.60668864370603        2.73647785956760        0.52883731526031
H            1.68573164723686        2.49573607408551       -0.56550929317759
N            3.66171744183274       -1.22520765954293       -1.41870780238426
H            4.07984263260916       -2.04524184382015       -1.01540420513122
H            4.20801665668729       -0.68096759118349       -2.06372377500396
N            0.91819940969142       -1.56256026174216        2.19235859902746
H           -0.02916683910697       -1.67394625677142        2.50706690583165
H            1.65637104120456       -2.04135225494407        2.67982457898328
H           -1.17076537727624       -2.11671693365952        0.14620666329009
