30
 energy: -54.867281765643 gnorm: 0.000912658279 xtb: 6.6.1 (8d0f1dd)
N           -4.94384009360098       -1.81688870382686       -0.55289318122691
C           -3.86662036832909       -1.41817050675227       -0.49391955151570
C           -2.55950998752422       -0.91177944598336       -0.40919456375499
C           -2.36191052052282        0.30956201674434        0.30349983136706
N           -3.42255411460558        0.78550963058543        0.99678500123739
H           -4.30415972323808        0.30313989771772        0.94324881815725
H           -3.39600845392986        1.71204688417208        1.38859309289698
C           -1.20148425596402        1.10304017917503        0.23359254371065
C           -1.33371264182122        2.39047236989969        0.78752019394359
N           -1.47227158687090        3.44348581942341        1.23254272888822
C            0.12664355038584        0.79827627790015       -0.22063383755604
C            0.98910435269226        1.83791605094786       -0.48190628193558
C            2.39946466628644        1.84094826872473       -0.55984652470663
N            2.96418662848609        2.97836751676097       -1.04297210159181
H            3.95458911119313        3.12283057805287       -0.96017410458135
H            2.38751852855750        3.78013123210048       -1.22641723457580
C            3.25627736215817        0.84935416016838       -0.09496355367974
C            2.95280765336086       -0.42806666605190        0.37962012911144
N            3.95586379053860       -1.12243070653762        0.97236882626531
H            4.89355922877645       -0.76326045593560        0.95411783094367
H            3.82007216631222       -2.09369859079492        1.19828752742261
C            1.72024356174962       -1.10483693407464        0.21106033704392
C            1.71711123898300       -2.48333838140353        0.50106479633266
N            1.75228116679206       -3.59953085594003        0.77543617246453
C            0.50516982074664       -0.60964181654915       -0.30817775980110
N           -0.27309145883009       -1.48082725826411       -0.90535068472530
C           -1.55216113201989       -1.57063627093378       -1.10943182745124
H           -1.83827218393967       -2.32376532097118       -1.83636678561785
H            4.30620725879742        1.11616130080545       -0.06069216153926
H            0.53408057847996        2.81471808984406       -0.60000361422398
