30
 energy: -49.262003712242 gnorm: 0.000618647574 xtb: 6.6.1 (8d0f1dd)
N           -1.13992234224975       -3.47061086010658       -0.82243856442721
C           -1.13118524387476       -2.34950124492250       -0.54509456403929
C           -1.18630289684952       -0.98478078380777       -0.22978165524448
C           -2.49313079883619       -0.44798268422680       -0.25282299058526
N           -2.92726073174023        0.73610624221637        0.15882758751899
C           -2.16140008096582        1.79586497316675        0.37558964835778
C           -0.79612365416191        1.98558489584825        0.14030978411455
C            0.24945653621150        1.07847501731435       -0.05487487550318
C            1.48880800163118        1.66718486240668       -0.37414668327575
C            2.79540980905425        1.20165740803010       -0.37000512427505
C            3.25893815860040       -0.03387002585136        0.09897301758424
C            2.48784878261094       -1.10457729500393        0.51386245223060
C            1.08955485249242       -1.23420645521697        0.41267633272741
C            0.07614748650852       -0.35864514094013        0.05855391988516
H            0.74932636182604       -2.24112991808591        0.63055381199965
N            3.14320110803077       -2.18389300470134        1.04719175437144
H            2.64590545463438       -3.05577684572485        1.11453534863095
H            4.13897178271214       -2.24754063488784        0.92257283472346
H            4.33423054283416       -0.15681236703127        0.14630039098269
N            3.76580547650367        2.10203290423418       -0.74932653093964
H            4.67931680445814        1.74119997192507       -0.96534765009887
H            3.47589788339079        2.90518965203179       -1.28101385305202
H            1.40781961176052        2.71136628121354       -0.66053359070117
H           -0.49268323925679        3.02592903434584        0.18437996415536
N           -2.87917067256197        2.88845636236578        0.76997720024480
H           -3.83551182227130        2.72696263624182        1.03263150651002
H           -2.40612841582699        3.68916364933604        1.14769817044013
N           -3.50188799329705       -1.24760047920660       -0.68611260193105
H           -3.34025766418004       -2.22337721244596       -0.86502727155767
H           -4.43885047568318       -0.90735219541292       -0.56478356674724
