27
 energy: -51.698616068170 gnorm: 0.000991062236 xtb: 6.6.1 (8d0f1dd)
N            2.95149646469034        1.71002226100942       -1.99815074301469
C            2.02983091033055        1.68791919579868       -1.31397091319059
C            0.84209556368863        1.66108418486825       -0.55298353971946
C            0.15635209392844        2.84713199295440       -0.39278888666881
N           -0.86265515727608        3.10670508642478        0.41340346051277
C           -1.74431451495205        2.26431773625950        0.86365646395285
C           -1.97691986657172        0.94019035173324        0.44669474699039
C           -3.24104703232805        0.37912991235179        0.72423236248026
N           -4.27017769093235       -0.07035633153514        0.96346944994263
C           -1.02955097216474        0.07007222945714       -0.13530353554091
N           -1.46559892706425       -1.02926393262040       -0.70691519087650
C           -0.94336913951876       -2.22379323565403       -0.83283711731353
N           -1.51893966661912       -3.02515629374384       -1.74846906528709
H           -2.31834890443552       -2.68088857595476       -2.25188412608434
H           -1.28441787644855       -3.99943533458694       -1.80175793888706
C            0.07912764512800       -2.75199292399900       -0.00123470353160
C            1.07777780630576       -2.00471116695716        0.57808462723876
N            1.98741985814053       -2.61388299494168        1.37156457189249
H            1.95842184785393       -3.61134797203934        1.48768589279948
H            2.81392636473421       -2.12100361365096        1.66618257728677
C            1.31098463894719       -0.59423422171504        0.30323065912964
C            2.62862478025097       -0.16129208651623        0.57407839498947
N            3.69701515522896        0.12922179152513        0.88125683175109
C            0.40077091361619        0.36449080722475       -0.09012073693194
H            0.11510580456262       -3.82537840735757        0.12237868362832
H           -2.45492998220023        2.69237726842035        1.56444123341782
H            0.55865765860442        3.72911483804425       -0.88106864156660
