25
 energy: -42.661024732880 gnorm: 0.000687429292 xtb: 6.6.1 (8d0f1dd)
N           -1.73739796003978       -3.55497686183306       -0.43795202298465
C           -1.52333947223735       -2.42829383260309       -0.35569205566664
C           -1.31341622899071       -1.03648020157799       -0.26872670152721
C           -0.07491115143649       -0.60484510241856        0.21266633040159
C            0.82098905550241       -1.54712397231793        0.78269133770026
C            2.18767270444180       -1.47124594320023        0.85970406537545
N            3.04587188115738       -0.64874691062923        0.26776127879791
C            2.74590415707743        0.50775170821611       -0.29003698431177
C            1.55120594801639        1.25995030150764       -0.15543062064162
C            0.29051560042468        0.80861598665402        0.15911189981417
N           -0.60600470125419        1.74692920906402        0.51735815885399
C           -1.86585897028632        1.87307044203755        0.26877765802122
C           -2.65151884538528        1.04775056978613       -0.61478359846810
C           -2.38714926867063       -0.26602626791276       -0.80591522438161
H           -3.10932761807883       -0.84236042054370       -1.37374016430759
H           -3.55918546503246        1.47446779443696       -1.01639770345472
N           -2.49445852825973        2.92680401497114        0.84794792099591
H           -3.49471375350899        2.99813511534708        0.81369103667654
H           -1.99686546233624        3.43644506065591        1.55728502608370
H            1.63244164877453        2.32736462044936       -0.31924844060288
N            3.76935093698788        1.08072776845984       -0.96608894239240
H            3.70154045815204        2.01920580932713       -1.31352413980749
H            4.65872196214354        0.61335420295743       -0.95850786269878
H            2.69453438783845       -2.27261509304329        1.39003382817725
H            0.36790534950038       -2.45493586899171        1.16217378974576
