26
 energy: -43.165828916786 gnorm: 0.000385034949 xtb: 6.6.1 (8d0f1dd)
N           -3.88026385538590       -2.04419670764841       -1.77695590997527
C           -3.26498612907876       -1.29042026276005       -1.16999887405557
C           -2.49539423560442       -0.37255128882337       -0.41452080309597
C           -1.14432499752881       -0.79540765993313       -0.12666573619041
C           -0.09227519292530       -0.00009746399741        0.15341459069561
C            1.19842330135092       -0.61198039108303        0.51228461010096
N            1.14941700327422       -1.55692592287930        1.48521644218905
H            1.98985758845766       -2.04117099896434        1.75284332610488
H            0.26443220644307       -1.90470593832148        1.80769289226821
C            2.38453043879520       -0.27997150541792       -0.09846969420856
C            3.50569310749735       -1.08154044502459        0.19855004372710
N            4.40818460251856       -1.74675465825347        0.45220272858494
C            2.61242822721463        0.77965268064529       -1.04394584005612
C            1.89873240304363        1.91742410202803       -1.16012661246883
C            0.75622486891556        2.28242727718687       -0.38129898793745
C           -0.13323447786642        1.45910865660123        0.20941926117931
C           -1.21512932365680        2.00780684270824        1.03701916012669
C           -2.51748661270793        1.70957751950707        0.93468313760586
C           -3.10976253815394        0.74351066940253        0.05518002006336
H           -4.15944224466504        0.87918538156210       -0.17214548007563
H           -3.21904703360731        2.25865166499597        1.55046484406689
H           -0.90782690784841        2.75438607746902        1.75988783762234
H            0.56686458673373        3.34620170340248       -0.30108523198578
H            2.25634412611743        2.67017525979747       -1.84955424058942
H            3.51015367586514        0.66968094521693       -1.63867970622654
H           -0.97527764150012       -1.86317588531422       -0.20831214487138
