24
 energy: -42.167270615573 gnorm: 0.000461646208 xtb: 6.6.1 (8d0f1dd)
N           -3.16613790736443       -1.45028522990016       -1.32899286035658
C           -2.27462370330450       -0.76902610715849       -0.57040365856280
N           -2.64987347856135        0.45387824983806       -0.24753064716855
C           -1.88483196599683        1.28469367150458        0.47615379756664
N           -0.58180532392005        1.40948253486374        0.47349531856310
C            0.32461791889524        0.52043321132560        0.10236103066274
N            1.44139728731929        0.97163673455637       -0.40013894309974
C            2.63152374963324        0.39011068920451       -0.43910997674357
N            3.14732989578285       -0.49647151042603        0.40317504762154
C            2.40327118987289       -1.36995201685653        1.07092875492213
C            1.07107838253881       -1.68573774036634        0.93706821541187
C            0.06905088616251       -0.92429862972269        0.28723681289591
C           -1.12688434849766       -1.47352809271771       -0.11758551573354
H           -1.19138450223158       -2.55551274712241       -0.13973892120048
H            0.73281386344477       -2.59911168659861        1.41228485187446
H            2.99737065747893       -1.99765338345324        1.72989998710173
N            3.48238125832285        0.86247089329565       -1.38462645898707
H            4.45687417506952        0.64344143567839       -1.27275124031551
H            3.22398786946695        1.70690150549589       -1.86452051507092
N           -2.57451844936826        2.19282830864160        1.20725676953167
H           -2.06427726035107        2.97473166450494        1.57876952000797
H           -3.55730213628145        2.29003211083615        1.02326049330671
H           -3.05258897945729       -2.43232708350574       -1.49961539509785
H           -4.03877150165311       -1.00464739621896       -1.54801822223063
