25
 energy: -46.689813979194 gnorm: 0.000350740611 xtb: 6.6.1 (8d0f1dd)
N           -1.52343623561281       -3.38525015022561        0.42510057729044
C           -1.29931651012784       -2.26752229596630        0.26925485490691
C           -1.07505148981614       -0.88855733240400        0.13431290849962
C           -2.15139070696029       -0.01052668845033        0.46019311597246
N           -2.34048517313125        1.21684951649508        0.02035344558205
C           -1.46826790596798        2.08053629030061       -0.48388315235702
C           -0.06800235814669        2.05863442539665       -0.35376201977032
C            0.66601757265174        0.92136159084342       -0.08972497268320
N            1.87386172502995        0.97411169943949        0.44281071857725
C            2.86595648952321        0.11135409925127        0.39968928074822
N            3.15802468348728       -0.74837267902567       -0.59392987010020
C            2.19116861834330       -1.17826658951646       -1.36860879145542
N            0.90507143336616       -1.19800447785231       -1.13588106215973
C            0.15108161236885       -0.44565436970449       -0.37172509019024
H            2.50134798251232       -1.70899829470822       -2.26303996831619
N            3.78933254054992        0.19733912692327        1.38275242823733
H            4.65829550543923       -0.28742833563883        1.24582591676172
H            3.74262956821884        0.96720114718317        2.02599127847748
H            0.46316528379112        2.99805487024620       -0.41635221202279
N           -2.04406312425745        3.16596633555861       -1.05184335980373
H           -3.04354134058419        3.25376482344874       -1.01182504301588
H           -1.48675017788853        3.95059805324532       -1.33497797430218
N           -3.17068005912997       -0.51041776524489        1.19469176041478
H           -4.01029924326881        0.03699418000706        1.26971562661110
H           -3.20254836498908       -1.49525967450230        1.39800255649826
