29
 energy: -50.334930245721 gnorm: 0.000833231401 xtb: 6.6.1 (8d0f1dd)
N           -2.45495476431751       -3.61815197378108        1.68985878901815
C           -2.06802261302400       -2.65002347379901        1.20869930984068
C           -1.57462728347528       -1.47389042414643        0.60404756889322
C           -2.38584983137355       -0.38356335214412        0.57247216935667
C           -2.12030125088022        0.86872876935629       -0.06708625571223
C           -3.25343633040456        1.64830856400133       -0.37199938677496
N           -4.16233320446755        2.30148148644226       -0.63633171279443
C           -0.88362267852713        1.41514050940390       -0.35374152196044
C            0.39447919502536        0.81348898435308        0.04011268848899
C            1.35569612476543        1.58752539700246        0.60379591776568
N            2.57224398452401        1.23904890085414        1.07116216268495
C            3.30911692368962        0.28825092229945        0.58689860281344
N            4.53537399925800        0.13565286250087        1.16086441293365
H            4.68722180710837        0.62129797355704        2.02822004089733
H            5.06337277445004       -0.70080559016860        0.98845263194679
C            3.05633974037499       -0.50863093769877       -0.59004735021593
C            1.83330164235503       -0.89495347236293       -1.02331877972227
N            1.68552680662548       -1.67415498421249       -2.13377073828882
H            0.76131870510952       -1.83627022032848       -2.49286280071248
H            2.45544937725059       -1.76724402093962       -2.77362583841355
C            0.58489168708982       -0.60192297707976       -0.28756783414157
C           -0.27843246818475       -1.59735741751830       -0.02640054766646
H            0.01536166921656       -2.61061273773606       -0.27363461367840
H            3.92783765425867       -0.86043651055993       -1.12753413574722
H            1.10833306304353        2.61624124688201        0.85240145620143
N           -0.79717819125371        2.58335924730610       -1.02940277210807
H           -1.63669721485389        3.08675859790957       -1.26729419499575
H            0.08666752546196        3.05681730691439       -1.09071049843786
H           -3.37723569534223       -0.48159887781255        0.99961111482896
