30
 energy: -50.043050547064 gnorm: 0.000896671581 xtb: 6.6.1 (8d0f1dd)
N           -4.21549980100729       -0.76904648123573        2.15496951210759
C           -3.41149605775984       -0.46067391636522        1.39190843033016
C           -2.43666060530553       -0.06206198635155        0.46027998718070
C           -1.44801134199933       -1.06424594003131        0.12135738256829
C           -0.19248280159792       -0.86002799263319       -0.31484890123797
C            0.62831297299327       -2.01784586113182       -0.71466481908095
N           -0.01139312324052       -2.95087359925745       -1.47227791193716
H            0.51860930286015       -3.68620062358346       -1.90683012786275
H           -0.92870678109605       -2.75110907780362       -1.82878892622690
C            1.90837010929942       -2.22580719745327       -0.29639094645315
C            2.69992850999309       -1.34560370891374        0.47202940549582
C            2.57896246091732        0.01161930659851        0.56971808711744
C            3.53191664157847        0.68675909351682        1.35677747086864
N            4.29482880096455        1.25786659488243        2.00131862688209
C            1.63480967156210        0.85320045433106       -0.15137750198009
N            2.08130817223090        2.13764966296981       -0.43843729744764
H            1.36946567330487        2.84284178824520       -0.54046126464080
H            2.88604628841372        2.44174017930358        0.08877441834229
C            0.39944066136380        0.45662576815246       -0.55661591127349
C           -0.41808422056856        1.35065861945564       -1.37870932357577
C           -1.70670415508475        1.65383297802526       -1.18887651721617
C           -2.57024020811527        1.17257892039745       -0.12752975360755
N           -3.64594206262258        1.96650010811507        0.15759822946232
H           -4.22214531440068        1.72244816874723        0.94618746959452
H           -3.62422223457863        2.93271842143988       -0.11676259178627
H           -2.17986741967445        2.35831502706873       -1.86279424759143
H            0.09549725587300        1.80583277702772       -2.21991720561650
H            3.54415810712373       -1.79367845338002        0.98300506823719
H            2.35229519148789       -3.18622003741548       -0.52714421469534
H           -1.76634600171849       -2.08399724562155        0.30373306404282
