24
 energy: -47.764391618888 gnorm: 0.000996310249 xtb: 6.6.1 (8d0f1dd)
N           -5.00246181578483       -0.09240536946044        0.86978268117958
C           -3.86187486242148       -0.07354065753024        0.72872070161094
C           -2.47451665155886       -0.00544735879060        0.52804973345252
C           -1.60926582232239       -0.80450255321936        1.26928095045823
N           -0.38502264990388       -1.11151935411595        0.91914846512979
C            0.49697176413325       -0.48972394005411        0.20283918406149
C            0.35960596205992        0.99327483242560        0.04935327319668
N            1.30219103216192        1.83112789905831        0.39019367225392
C            2.59367551398416        1.52812498339696        0.40954706530155
N            3.22646426984267        0.66135122246879       -0.39057385206493
C            2.72669430333418       -0.44630471089061       -0.87073215151431
C            1.54848422189621       -1.11409525204950       -0.50649967268870
C            1.37856017188209       -2.45474436952251       -0.90670737001825
N            1.23658347157409       -3.54099574408841       -1.24910210641926
H            3.39052871362442       -0.96075625261010       -1.55926524504772
N            3.38485467924548        2.28965533981990        1.17960821172824
H            4.38115743830207        2.20801488937222        1.07885674473201
H            2.98394276307980        3.06240742766567        1.68086295090019
N           -0.76612556216830        1.39197413330894       -0.47813136390971
C           -1.97145562608425        0.87030889941980       -0.49421522282958
N           -2.79934575299830        1.28649596539655       -1.46926311953316
H           -2.47980247101681        1.99496012564127       -2.10723876844985
H           -3.77664953903400        1.05144419878219       -1.43420411254392
H           -1.98756495549644       -1.34983549205512        2.12555010878867
