23
 energy: -44.021328091668 gnorm: 0.000601274639 xtb: 6.6.1 (8d0f1dd)
N            3.57945677811116        2.26625467141505        0.46568087430219
C            2.49597991680850        1.90244030734194        0.36533394714870
C            1.15946555385526        1.45876027995495        0.26991190778780
C            0.13882891613042        2.39910616823777        0.48834277691310
C           -1.20136282944125        2.30619975541408        0.21053255881554
C           -1.98223510991012        1.19776908991215       -0.18908973805943
N           -3.25063910314967        1.45029309161724       -0.57217329690724
H           -3.87818364049546        0.68925665294154       -0.77405642331996
H           -3.61862793247172        2.38435464055385       -0.53107285759237
C           -1.59165221252209       -0.16086676036716       -0.09777481251351
C           -2.59580474683738       -1.14243425010382       -0.22224194814547
N           -3.43181895477003       -1.91873644503838       -0.35512949273950
C           -0.30386731785670       -0.60454724984925        0.22152278529827
N           -0.06063507726384       -1.70338134626536        0.88300436506066
C            0.94764044940951       -2.53071998008674        0.90282128074685
N            1.81247787293388       -2.75906727831277       -0.06830061551369
C            1.98814736451514       -1.83110259005192       -0.99596652780717
N            1.74243178864576       -0.55770402690845       -0.88985595805822
C            0.93505160745699        0.14062268842634       -0.13497715320650
H            2.51131684531233       -2.13411742931531       -1.89558310009891
H            0.99018516194725       -3.19171186043035        1.76078928533832
H           -1.76220255730392        3.22872316096281        0.29843697160672
H            0.48801360839538        3.37354813155168        0.80864089054473
