21
 energy: -39.792253745010 gnorm: 0.000528473501 xtb: 6.6.1 (8d0f1dd)
N            5.06662192067693        0.12830387378809       -0.28799783668154
C            3.92118993246397        0.11101984420309       -0.21650934502372
C            2.51287824749456        0.08907923368827       -0.12654513325784
C            1.91239693353793        1.03544999388563        0.72728035149930
C            0.58436502640649        1.38404556859008        0.81214284711170
C           -0.48277626625015        0.68214776347908        0.22564428078873
N           -1.63375242567808        1.22053478823597       -0.07711684403151
C           -2.80075094304676        0.60732017575057       -0.25357728166227
N           -3.24878386619959       -0.44958936077713        0.43890966765008
C           -2.40050442852942       -1.30901275598722        0.95671981556917
N           -1.16742469960316       -1.55163951356666        0.59834991145588
C           -0.31540004382734       -0.77185195390898       -0.02569452376294
N            0.61654031133114       -1.24430767354825       -0.81480706733262
C            1.83401789450213       -0.80606305327888       -0.96763536460628
H            2.38713635517260       -1.27493893390931       -1.77439705574456
H           -2.81441463905114       -1.99587245162594        1.68712578714599
N           -3.68998624062946        1.21742538297945       -1.05086015056053
H           -4.63505846294536        0.87678074380185       -1.06050139503918
H           -3.46408214084805        2.10730607819788       -1.45861597373350
H            0.32306970588050        2.26615470225521        1.38049549146098
H            2.60772589124398        1.65278474724791        1.28450955565540
