24
 energy: -39.725278181889 gnorm: 0.000431213478 xtb: 6.6.1 (8d0f1dd)
N           -3.54032565743071       -0.43069706801923       -1.84855743396214
C           -2.62052418829204       -0.67776725606798       -1.20778425553855
C           -1.48971888718467       -0.96744361843118       -0.41294597782098
C           -1.21494908041687       -2.25791788270420       -0.11598678802078
C           -0.08262269047695       -2.74641781554574        0.60354624190938
C            1.11552234016723       -2.13035015341316        0.68773436677942
C            1.48543796722483       -0.86722302615228        0.10518321868672
C            2.87745009899146       -0.71164371139871       -0.09394797039001
N            4.01071328824892       -0.61364491496880       -0.24730755545844
C            0.68164045402797        0.20723722166968       -0.18600717880067
C            1.26121289222173        1.37736825122574       -0.82429113788311
C            1.01590939656564        2.66839823728478       -0.53432662654389
C            0.11181309333631        3.19036918977632        0.44396030784456
C           -0.98459474424217        2.56312020497843        0.92398994620823
C           -1.45884678154150        1.27329228654621        0.53803675647914
C           -0.75096036108282        0.23225669460103        0.04083220411591
H           -2.51832090308778        1.10729131496420        0.69630538670258
H           -1.63311110225652        3.11244245121879        1.59413432047938
H            0.29532258466309        4.21018528231858        0.75421430628858
H            1.59953496082966        3.41063469630132       -1.06425933837663
H            2.01118783223997        1.15886867841150       -1.57579923135192
H            1.93034375901732       -2.66183436026364        1.16419721336310
H           -0.17749556188167       -3.73992549918858        1.01937463143372
H           -1.92008650463297       -3.00726907344181       -0.45673215304045
