25
 energy: -42.663207452033 gnorm: 0.000857865869 xtb: 6.6.1 (8d0f1dd)
N            4.99866304530386        0.61448452406745       -0.28509189111084
C            3.84962260606372        0.53891147583219       -0.25128011317921
C            2.45756895626413        0.40059579102381       -0.20584612470998
C            1.65087919793741        1.47185914941173       -0.63496687561122
C            0.29802494729787        1.62847366356695       -0.52002059044194
C           -0.72050618074549        0.69608454479789       -0.16023260454508
C           -0.41473159231811       -0.73049866125156       -0.22177073397279
N            0.71855362854068       -1.25058810976837        0.16287952392333
C            1.92662089559071       -0.77202827497608        0.38618943849709
N            2.72261188622860       -1.53906084034652        1.16546907708895
H            2.38077599231009       -2.43482946869515        1.46582445076104
H            3.70677192527835       -1.33946506033516        1.22002804791807
C           -1.35591962535297       -1.64895754770294       -0.75997032693892
C           -2.72074202606625       -1.53917454591156       -0.80674683758455
N           -3.54248134748078       -0.67781289199703       -0.22321829330142
C           -3.19134786004852        0.48102941835413        0.30702780100223
C           -1.97222168474989        1.18670964415804        0.15193047628161
H           -2.03571162488676        2.25552096790487        0.32472443495400
N           -4.18921638686416        1.10266547234338        0.97817687581911
H           -4.09137715186882        2.04728180622567        1.30232557629181
H           -5.09320011578496        0.66384272118786        0.98695162206043
H           -3.26077785273996       -2.33801745266328       -1.30787617777070
H           -0.91925331744268       -2.56848217383086       -1.12651573924784
H           -0.08589814506668        2.60210572594799       -0.80125647505771
H            2.19998256459774        2.32273091666936       -1.02202228552735
