34
 energy: -62.532305544656 gnorm: 0.000949902743 xtb: 6.6.1 (8d0f1dd)
N           -4.24095614841857       -2.51923089885541        2.07054881239219
C           -3.43687242678227       -1.94599251347187        1.48511509358046
C           -2.46050414424284       -1.22313363075215        0.76311562326834
C           -1.15939506132894       -1.54261884259015        0.97525991412981
C           -0.00474950124174       -0.94019523832595        0.36214148605810
C            1.04562867522329       -1.73288535452615        0.03262803300935
C            2.27815090427192       -1.34316777102071       -0.58164005302159
C            2.93749702924475       -2.34337151674202       -1.31976857688497
N            3.49341196627229       -3.15257387316681       -1.91907937567611
C            2.92863215067147       -0.13139797619388       -0.42910368080512
N            4.10507481243985        0.09857995028732       -1.06700676398466
H            4.54455447042379       -0.66168762930708       -1.56023137534765
H            4.68208666296064        0.87110461589710       -0.77890213304724
C            2.47801470018717        0.90419712301667        0.47959740593102
C            3.48344611380618        1.71878243958511        1.02978566763491
N            4.29689763623660        2.40387629615034        1.46997242015952
C            1.17501934310741        1.17679079913062        0.83346250318235
N            0.90404468210005        2.09446497367038        1.78574729900748
H            1.65183387442545        2.58159902361358        2.25224477626513
H           -0.04537989048798        2.37734149033231        1.95187439288014
C            0.00559396501919        0.52509007767617        0.22043453051113
C           -1.00159820289265        1.28167815719050       -0.28167837043354
N           -0.88893460886732        2.66704711608185       -0.35691057428169
H           -1.54686081181693        3.11068659029999       -0.98141231394981
H            0.04743430950651        3.03055232921176       -0.45094973204561
C           -2.28043503512298        0.76148710316454       -0.76187577984239
C           -2.91811278951393        1.52851902403091       -1.75227224223405
N           -3.43732292026798        2.15678221757623       -2.56557622862338
C           -2.97513614894461       -0.31349596060719       -0.25976327995895
N           -4.21482371548264       -0.60447059764872       -0.71915326827046
H           -4.64751072613249       -0.01235429065945       -1.40745407831087
H           -4.74498126178515       -1.35846407622398       -0.31853702072128
H            0.91859390743939       -2.80235525713765        0.15126481375127
H           -0.96614627549574       -2.36990539347424        1.65062778706585
