30
 energy: -55.648641077337 gnorm: 0.000723974402 xtb: 6.6.1 (8d0f1dd)
N            3.42722454677724        3.20910243285939       -2.11605238839639
C            2.96123758183119        2.36467822702719       -1.49511659425562
C            2.37031914627287        1.33561823018907       -0.72601820893924
C            1.11667353182611        1.67321034949122       -0.10283325726002
C            0.14492211572305        0.82479494259874        0.29343158303639
C           -1.04386442105076        1.37275459438737        0.93132862984085
C           -2.32902812322734        1.04165023083486        0.68585470515152
C           -3.32945402016597        1.74724282947396        1.40177625964156
N           -4.15215951018787        2.30768418720155        1.97070883479439
C           -2.83216445416954        0.06953038880801       -0.28668724616947
N           -4.07801256412713        0.29826847586070       -0.76807090011663
H           -4.64645137642498        1.03356377032679       -0.38466291194584
H           -4.51218394211833       -0.38998107655818       -1.36017053546484
C           -2.12168977052203       -1.04904700195624       -0.65868983901818
C           -2.77304147854175       -1.99196053631333       -1.47936386804084
N           -3.31766172644645       -2.76355621185413       -2.13389780833506
C           -0.80695563392782       -1.43069487189860       -0.21062557838947
C            0.20265021207093       -0.63640686000977        0.19814062695602
C            1.43897404754400       -1.26902170405880        0.69483014552289
N            1.26619325004219       -2.27173591003279        1.58122164973068
H            0.34462917386346       -2.60408016885107        1.80378579928493
H            2.06567487375886       -2.76609996355685        1.94352018578306
C            2.70561060454386       -0.92360906738655        0.26752113903130
C            3.76602646296226       -1.76815036714587        0.66092845810748
N            4.60993025989626       -2.47231489409980        0.99513435646868
C            3.06928659925652        0.17869270794542       -0.56416955648710
H            4.04925578501998        0.11288922224921       -1.02127062921964
H           -0.60909921341103       -2.49343520480941       -0.29636791626754
H           -0.86673660074267        2.16079947503824        1.65589065445854
H            0.92505732717321        2.73551399364369       -0.00832030450184
