29
 energy: -45.520442506504 gnorm: 0.000441493932 xtb: 6.6.1 (8d0f1dd)
N            3.63157763873276        1.90092486705312        1.74597523456934
C            2.93499583126395        1.22985793931746        1.12140937354351
C            2.09415070157639        0.39222771725836        0.36878272719863
C            0.82303807420827        0.97132691387539       -0.01496594791949
C           -0.32451283369291        0.33821934499340       -0.32066813514147
C           -1.46724191349666        1.14388167610272       -0.79156988275626
N           -1.13106550945669        2.16090249927108       -1.66223528798645
H           -0.24867083519910        2.07288158031066       -2.13896259054811
H           -1.87848838748298        2.55896076642307       -2.20801588200489
C           -2.74405145940391        1.01317451096153       -0.36951722914717
C           -3.28511073236819        0.04029839129367        0.53822675196059
N           -4.52269349909005        0.36852616037655        1.07241361011217
H           -4.71018149772685        1.35190530678932        1.18494263556190
H           -4.82912123620258       -0.20105389637727        1.84502633524322
C           -2.77320671286530       -1.20527137508412        0.74249941770504
C           -1.61401153223625       -1.75321448769622        0.12994523669633
C           -0.51776473692524       -1.11127958978629       -0.34143727354400
C            0.53233011724571       -1.89614508146383       -0.98392619944603
C            1.85844383144712       -1.76823712076289       -0.85324788660065
C            2.58191077996164       -0.83137923276997       -0.01848567883794
N            3.87381178718864       -1.18654136444563        0.26811923503659
H            4.13086912780327       -2.15566799734517        0.19658060163786
H            4.37447509603796       -0.63111306431660        0.94271414453661
H            2.49449266439570       -2.47113592636118       -1.37892445321956
H            0.17284157767689       -2.69728432544112       -1.62161244565103
H           -1.58299830672165       -2.83715522660650        0.10357165965681
H           -3.35136010708287       -1.88545480627942        1.35579379350244
H           -3.45903433889425        1.74359927365884       -0.73132312544561
H            0.80821431654171        2.05463745422809        0.00877829729619
