28
 energy: -56.224496783126 gnorm: 0.000498552040 xtb: 6.6.1 (8d0f1dd)
N           -5.31372725385100       -1.53153714779099       -0.12368752330062
C           -4.21635181427441       -1.20594992509088       -0.22077721996789
C           -2.87805108422029       -0.78030299333070       -0.32993610604135
C           -2.01604926175269       -1.56022151781957       -1.10670081405294
N           -0.71927835449104       -1.58216237945999       -1.04114199092789
C            0.13808731306729       -0.72036356445813       -0.54858186355806
C           -0.13818828685809        0.71992846614259       -0.54906707496025
N            0.71900485283448        1.58138752178105       -1.04252883621118
C            2.01575212168344        1.55938677628164       -1.10853609197009
C            2.87803454441949        0.78004324947103       -0.33150694106061
C            4.21659450318657        1.20528886224694       -0.22395364925941
N            5.31340744685498        1.53216655369212       -0.12525164183071
C            2.53387295831594       -0.45477040194091        0.28908066609450
C            1.33999058178753       -1.17742139002999        0.02836417142420
C            1.32189775007590       -2.52725257788119        0.44386944523439
N            1.33741794285715       -3.61685684462348        0.80588254102832
N            3.46408852464718       -1.04401212307528        1.06128235788213
H            3.31933827496319       -1.98044643795701        1.40349225267476
H            4.37192405539143       -0.61987208663562        1.16534547608715
H            2.44973641714360        2.31945865187467       -1.74854367686221
C           -1.33987544203061        1.17742655429232        0.02796785047579
C           -1.32129188015086        2.52738903822680        0.44302513864558
N           -1.33789075710902        3.61774096460555        0.80265780817307
C           -2.53369295974857        0.45499383902922        0.28958454118408
N           -3.46361515940297        1.04476330387519        1.06173096644041
H           -3.31876062636003        1.98146252488327        1.40317071473530
H           -4.37144455458064        0.62074033747118        1.16632893502057
H           -2.45026024969626       -2.32081306958443       -1.74593687599813
