23
 energy: -34.407565250338 gnorm: 0.000600135412 xtb: 6.6.1 (8d0f1dd)
N           -1.20826731250996       -2.10723731472583        1.23058296234182
C           -1.27257650319876       -1.06736606744704        0.35759979508573
N           -2.41775149959876       -0.67204946423544       -0.04760825281427
C           -2.68261923105251        0.46000626466387       -0.73643604517796
C           -2.01110494229695        1.63466708632405       -0.63986182562401
C           -0.75986547335028        1.82181373843686        0.01586688202454
C            0.18921435201763        0.88008242897355        0.24650190275984
C            1.42525793332528        1.22404440276757        0.95730750286671
C            2.66212236874345        0.86069025680038        0.59696240271482
C            3.03777372286200        0.02180671659936       -0.51458651726521
C            2.28832549997283       -0.95058180648653       -1.06411516087894
C            0.96511963651998       -1.32985402534645       -0.64940079740688
C            0.04544944361440       -0.52658424675885       -0.08524035944720
H            0.68089467638622       -2.35471929669854       -0.85695222115925
H            2.73130158654256       -1.57014895949435       -1.83400197350451
H            4.05321738815481        0.15030316685769       -0.86740170046858
H            3.49343478817683        1.24998403825325        1.17346183313272
H            1.30185220016659        1.86354667668790        1.82451137775834
H           -0.50783385749126        2.84226446568304        0.28080333315883
H           -2.47667548206352        2.52002005469783       -1.05136743407994
H           -3.62348628122954        0.41699171905062       -1.27158448758956
H           -0.32293789625297       -2.36236271830198        1.62987035436992
H           -2.05040919933852       -2.37310770520086        1.71200900320319
