27
 energy: -41.289223675802 gnorm: 0.000438167712 xtb: 6.6.1 (8d0f1dd)
N            3.96701605646640        1.48983994448582       -0.03066872385910
C            2.95819128513772        0.55641999221687       -0.02519514900952
C            3.35443002522568       -0.78258735951129        0.05386174650991
C            2.50252256818230       -1.86615122834060        0.11706452994272
C            1.12609278604639       -1.92123014631733        0.10256192308379
C            0.10849001586168       -0.93702823734162        0.03707920887577
C           -1.18587142446385       -1.47716272808173        0.00848161698050
C           -2.46940793744082       -0.92404954310430       -0.03169284411120
N           -2.88406050591366        0.33639771835130       -0.02579335561588
C           -2.04993610929726        1.37587718491335        0.00391660650257
C           -0.66056110621377        1.44753671572657        0.00481848352219
C            0.37238991378032        0.48657893380997        0.00112697072166
C            1.65865088055042        1.05567352245776       -0.04216529507960
H            1.64244502057244        2.14084905979923       -0.09500063978711
H           -0.30838311033346        2.47433397499428        0.00559607209089
N           -2.72709245765363        2.56478068408179       -0.02845357798079
H           -2.25592342417241        3.41482977267031        0.22430794793650
H           -3.71872945774880        2.50878383476163        0.12653713291672
N           -3.51204317909953       -1.80713726695332       -0.02215248324381
H           -4.42382183760334       -1.42025902560754       -0.19279232007257
H           -3.35441499483068       -2.77410342462987       -0.24172342682524
H           -1.21240557243561       -2.56216760817784        0.02104835471075
H            0.73860924186883       -2.93296846006200        0.15201045648623
H            2.99272484514284       -2.83193955437556        0.17789826261531
H            4.41881932406325       -0.97721817276243        0.06851561742798
H            4.89951439567747        1.17552760421452       -0.23557888353108
H            3.74568500453112        2.43418209848207       -0.29500981790767
