20
 energy: -36.045213609302 gnorm: 0.000647833572 xtb: 6.6.1 (8d0f1dd)
N            4.83451800673406       -0.01063759309298       -0.00303776830115
C            3.68653620070694       -0.00520550984208       -0.00141533189406
C            2.28087304741767       -0.00101260264883       -0.00007118236483
C            1.57608168611208        0.86747611293395       -0.85244789707342
N            0.34123638681335        1.23402922747745       -0.68244552420230
C           -0.69626708150937        0.74606714596436       -0.06273599013773
C           -1.73503657341911        1.51548181442729        0.46025905251838
C           -3.01898820974532        1.01517830993898        0.62250883937411
N           -3.57131000872119        0.00129649879713       -0.00258833055083
C           -3.01848815704616       -1.01293956063419       -0.62632870495051
C           -1.73451976796668       -1.51348707586600       -0.46189192803151
C           -0.69661341565975       -0.74432536394631        0.06236397285666
N            0.33939706575608       -1.23113838607394        0.68531222739583
C            1.57472437175458       -0.86640611269220        0.85446473635914
H            2.09679098505013       -1.37323921619422        1.65842620629660
H           -1.53003638386454       -2.54421309969287       -0.71508388889616
H           -3.72477351544993       -1.59309795330533       -1.21239261274174
H           -3.72550900696197        1.59461691357369        1.20850464295630
H           -1.53012680928464        2.54549952299539        0.71518073515605
H            2.09862084078376        1.37546837528156       -1.65572718926897
