29
 energy: -55.160074927806 gnorm: 0.000760463417 xtb: 6.6.1 (8d0f1dd)
N           -5.31426526114023        0.12744555467522        0.38312541590514
C           -4.16715775076296        0.11202270513897        0.30104986190140
C           -2.76908814905188        0.14524063410029        0.17312052481613
C           -2.21467166154218        1.16253519250355       -0.67833881968061
N           -1.00612915512460        1.64022328734599       -0.55916087466639
C            0.07386757726631        1.17797912815375        0.02472349954641
N            0.89980315848594        2.03600514333081        0.56391156822605
C            2.20756098873500        1.97709662955251        0.70935291903184
C            3.08265865472436        1.17978604499465       -0.05753325098149
C            2.76863101423896       -0.02806641979622       -0.65524131041725
C            1.54997197866639       -0.76267957086747       -0.43024087498673
C            1.58861096002133       -2.12128453578636       -0.80575504524245
N            1.66329134949849       -3.19929149827744       -1.19934192891739
C            0.34361371378387       -0.27025203791836        0.05879994914608
C           -0.64944129637807       -1.10524546424774        0.63636160928335
C           -0.19195689441540       -2.29657076864223        1.24402438074849
N            0.16318380302909       -3.23629625387641        1.79992267304264
C           -2.01233344375649       -0.84459946862860        0.78268458212077
H           -2.56557893799662       -1.57377700898712        1.36434662877998
N            3.71155986210740       -0.63878004651455       -1.41463656980743
H            3.57752896519643       -1.59519149018990       -1.69859944512767
H            4.64136928671994       -0.25982679654544       -1.44779861534213
H            4.11057375549121        1.50994449213262       -0.12907877480041
N            2.73134299812456        2.86082489873515        1.58638547732230
H            3.72283255349933        2.99900214365399        1.64918914721243
H            2.11004519421558        3.50342063006719        2.04555800740718
N           -3.00757534794104        1.72304781108365       -1.61250024014753
H           -3.99280779683717        1.52073420408332       -1.62128624036521
H           -2.65617648375568        2.50634180542528       -2.13475860801091
