23
 energy: -39.205262739742 gnorm: 0.000719664081 xtb: 6.6.1 (8d0f1dd)
N           -4.17544534660388       -1.57697861325632        0.86800986962620
C           -3.23557402676944       -0.97778524734778        0.59188846879876
C           -2.07314258790339       -0.25669345307484        0.24996722561072
C           -2.05256880923046        1.09234130978039        0.49394418222154
N           -1.17973924913667        1.97146168754903       -0.01537795300183
C            0.04213139976712        1.76163056376495       -0.34115455248782
C            0.84752074417175        0.58573336255030        0.09499325786017
C            1.99002864453137        0.72836803101646        0.79393764455937
N            2.76480137879838       -0.26255310473677        1.32723362507744
C            2.94680720076488       -1.39795393751789        0.77998393596073
C            2.46397928672439       -1.86339686335103       -0.50852455717073
C            1.28649114623428       -1.53221925317514       -1.05161663452294
C            0.29372547919504       -0.66953428148064       -0.39721889176595
C           -1.01442776312357       -1.00911929467061       -0.36637763450015
H           -1.29220230156984       -1.98073634953112       -0.75721066107449
H            1.00505891852504       -1.94780563842694       -2.01284368067066
H            3.10859542333636       -2.56367644690855       -1.02486313949811
H            3.60249579279468       -2.07456581258123        1.32068131102704
H            2.30739258056976        1.71804105805178        1.10381196136008
N            0.67217617216032        2.63903058344702       -1.14869892963516
H            1.67167854033102        2.61303671861628       -1.24396910734638
H            0.16489012162317        3.44290788066062       -1.47705006038507
H           -2.88683871808888        1.55407805402202        1.00756119375823
