27
 energy: -50.920573876863 gnorm: 0.000634830968 xtb: 6.6.1 (8d0f1dd)
N            2.85844576386212        2.88071487959031       -0.24831894206892
C            2.29362553870523        1.88738129413733       -0.12073268599149
C            1.64534765740189        0.64255013687912       -0.00399292331662
C            2.37686369621401       -0.50156834755682       -0.48022098891808
C            2.12120105599049       -1.81373256350973       -0.13046860958387
C            1.01690998406935       -2.28032915701101        0.61615710797622
N           -0.17227330159912       -1.72067133961535        0.67251789777123
C           -0.53154830296189       -0.48625253880707        0.39889645196404
C            0.36691724529030        0.66786667510111        0.54614531192776
N           -0.04462172201426        1.73231807886964        1.22899741588535
C           -1.22658788085418        2.24978614214078        1.30002156557054
N           -2.24233088721566        2.11530466749699        0.46492867550495
C           -2.45407527914338        1.03129978535682       -0.26173777715986
C           -1.82758463443525       -0.24853181513036       -0.09293256386786
C           -2.53241637168251       -1.36444793737934       -0.57526922806773
N           -3.14932375966623       -2.24325661214803       -0.98885416227959
N           -3.45309334446461        1.12669508053625       -1.16093589014936
H           -3.81472593771095        0.30197132813832       -1.60990656668734
H           -3.98346092099092        1.98078404365776       -1.18118788948929
H           -1.36552602712817        2.99786395792700        2.07401966740708
N            1.11774529627705       -3.47380065298497        1.24522987628559
H            1.90335363429547       -4.07436202150080        1.07245346934556
H            0.27762539373218       -3.87094885933492        1.62906409584947
H            2.86188111710054       -2.55025657445822       -0.41361006364274
N            3.46221874796765       -0.23617695222244       -1.25024671849974
H            3.76872185581853        0.71593173233437       -1.36164919698866
H            4.11229425674191       -0.97238197550675       -1.46142569967774
