32
 energy: -63.131846430803 gnorm: 0.000930539566 xtb: 6.6.1 (8d0f1dd)
N           -1.01033061647496       -3.67416935308419        1.47326137462930
C           -1.15330558610253       -2.64034396068638        0.98868772728176
C           -1.40424077904017       -1.33937468910262        0.51603407009302
C           -2.75996864258184       -0.91149228052880        0.57336439904599
N           -3.30223083662964        0.08360505527984       -0.11085675188304
C           -2.71820141376693        1.14255330970274       -0.62816680241681
N           -3.48288791382761        1.87219400130953       -1.46227339757014
H           -3.17434184019781        2.77833599308121       -1.77178556183022
H           -4.43977146237479        1.59602718150960       -1.59847962278778
C           -1.42657233896433        1.64993169870402       -0.28757553179521
C           -1.21408474075125        3.02585629620334       -0.48205546339043
N           -1.08315485530708        4.15202192133477       -0.67352590981892
C           -0.34552567193890        0.90239921380916        0.19666001385535
N            0.64259741161636        1.56088188813173        0.76289131725059
C            1.92148346751124        1.32957379971731        0.87859376492902
N            2.57647131211589        2.03565472672366        1.82268973716385
H            3.58200650658711        2.06417814404679        1.81860036177298
H            2.06873770330986        2.75171209023294        2.31322290715493
C            2.67623270200571        0.47470446675399        0.01550086365847
C            4.04719728148687        0.74174801684637       -0.10471350782191
N            5.17153664753958        0.97381211827318       -0.19339581297155
C            2.15061388884667       -0.64954902575940       -0.63993093051826
N            2.97220975848673       -1.34311274356326       -1.45760577985727
H            3.93906194670761       -1.07425010371498       -1.53315251592893
H            2.68057853994230       -2.22994297785876       -1.83372480033004
C            0.83963432178375       -1.18156390610775       -0.42446283992475
C            0.65296720782036       -2.48671982843908       -0.92949831943303
N            0.55052613977482       -3.51672276249693       -1.43051053157571
C           -0.30696315400698       -0.55962310213399        0.09345915788877
N           -3.63828247934847       -1.65009435905266        1.27845378391857
H           -4.61578421119452       -1.43195876299838        1.19469013229510
H           -3.35194499512200       -2.52071611298311        1.69378513133037
