28
 energy: -44.996526424325 gnorm: 0.000552360795 xtb: 6.6.1 (8d0f1dd)
N           -4.09193251290711        0.02889317801835        0.91883524396721
C           -2.79639801008780       -0.03736033744203        0.42479224847167
C           -2.36657107660667        1.15085580039776       -0.26566653290487
C           -1.10199443682364        1.55242293156271       -0.51830394760990
C            0.09766668120226        0.83048838471517       -0.06801568153483
C            1.14629492781367        1.51626421791183        0.44980216123455
N            2.33624540530265        1.02975133007939        0.90527964063672
C            2.86297787039870       -0.06232812258806        0.46750920715138
N            2.54685076751743       -0.71631828531242       -0.70072006985576
C            1.35547796299826       -0.91237120961796       -1.09482199220428
C            0.12820825891814       -0.60542410482840       -0.35101082893928
C           -0.85844937722962       -1.51016645788565       -0.13161929934708
C           -2.12056106062199       -1.21378683605543        0.48525576546313
H           -2.62311119251238       -2.05190952258306        0.95501213043850
N           -0.66527228808546       -2.84048899341654       -0.50182074809021
H            0.29554956158040       -3.13403176192922       -0.58524989834996
H           -1.24576914823989       -3.50561160486884       -0.01553832459064
H            1.25317553396690       -1.31157382081358       -2.10529971772345
N            3.95976249274993       -0.56830444715733        1.11264213260615
H            4.39873785566375        0.05937572088661        1.76627799471842
H            4.57098760675835       -1.14678181215945        0.56042238457437
H            1.03747409423110        2.57936345754602        0.63214083502711
N           -0.86487903281733        2.75202812943494       -1.15569262350788
H           -1.61901807257250        3.13892476262091       -1.70025915129141
H            0.05713731108753        2.88505995820081       -1.53687105546297
H           -3.16997135452352        1.80969955257112       -0.57488493976934
H           -4.41665498958095        0.94509794477454        1.18331966880624
H           -4.35153044577935       -0.69985657676201        1.56449539848671
