25
 energy: -42.657581158026 gnorm: 0.000399065629 xtb: 6.6.1 (8d0f1dd)
N            2.21336585846322        2.85865948797636        0.15103617045721
C            1.78768855765531        1.79555290984410        0.03553087071990
C            1.33477298301201        0.46818300223961       -0.05328694437994
C            0.01623312281166        0.27025032230529       -0.45505998179875
N           -0.61029652924547        1.29479248141815       -1.03144117140636
C           -1.82646967663812        1.72048709794714       -0.95384790712265
C           -2.83453392969191        1.27849574690809       -0.09393330309410
C           -2.89663940042660       -0.02248127638315        0.39411314873106
N           -3.98093107341163       -0.38091815472409        1.13246266539626
H           -4.15295827701611       -1.34811020847032        1.34008849258240
H           -4.72981887104906        0.27380213369814        1.26996588438428
C           -1.98712130276851       -1.06546208610409        0.07128453428399
C           -0.67945441155637       -1.01005288806046       -0.35250648070297
C           -0.01152460931335       -2.21236072386115       -0.74245765503070
C            1.32681517277679       -2.46652743486890       -0.68876778395763
N            2.31183040089534       -1.79871495982940       -0.08451795183259
C            2.28735216269090       -0.55110046327054        0.30935854443299
N            3.34035137165279       -0.16564392062761        1.06609774860289
H            4.09106444491469       -0.82421355233640        1.18366180369734
H            3.50670972153273        0.81131029265312        1.23878452856983
H            1.66991299085577       -3.41947250105734       -1.08104270326750
H           -0.65125378177752       -3.01304432282443       -1.09195749748669
H           -2.36819426737238       -2.06507772177463        0.25132888463868
H           -3.68469544022074        1.92450543676737        0.07364474631751
H           -2.04376955177257        2.56028054843453       -1.60721198593401
