27
 energy: -46.894201673261 gnorm: 0.000851977611 xtb: 6.6.1 (8d0f1dd)
N            2.03405945632587        2.39646911880142        1.65805853300410
C            1.86569909528392        1.43788736217733        1.04751962185003
C            1.69109451202590        0.20076706689894        0.38570887966803
C            0.39684602855409       -0.03876648728333       -0.13251040481597
C           -0.01931275381244       -1.42731752006774       -0.31075191394650
N            0.78605226869766       -2.22502099955412       -1.00960159276901
C            2.06080611654189       -2.40486442932173       -1.04111683609067
C            3.01073614738671       -1.85080574264806       -0.16611805225401
C            2.80008345185543       -0.65962855345096        0.48635793680081
H            3.62367697683909       -0.26397398241226        1.06988719636509
H            3.98498881341537       -2.31211460854261       -0.10667507869499
H            2.40112758836723       -3.08580710468414       -1.81590574957634
C           -1.22302006336335       -1.93629270608601        0.12594412068214
C           -2.38411766478701       -1.24247447602803        0.51201761402999
C           -2.67678875830558        0.09671702503196        0.25236430967935
C           -1.87003424364898        1.08886107975769       -0.30084217174758
C           -0.45259396876579        1.04367030312211       -0.42376195284004
C            0.16854204344531        2.23463615970705       -0.84677506037994
N            0.61808962485969        3.20067494069827       -1.28188446279586
N           -2.47436249767073        2.24587080253454       -0.66833616225955
H           -1.91141434361487        3.03690453217119       -0.93403407952435
H           -3.44026645309498        2.40121845926891       -0.44141415819003
H           -3.69665469142588        0.39839975055733        0.46218600799205
N           -3.36210791144617       -1.98464985277473        1.09233190210825
H           -3.24214247097057       -2.97444195596229        1.20573520914331
H           -4.26857819842182       -1.58954572777220        1.26466606196424
H           -1.28928425486969       -3.01709000003779        0.13226202779733
