27
 energy: -46.903312801499 gnorm: 0.000558502672 xtb: 6.6.1 (8d0f1dd)
N            3.58729480970872        2.45801064242406       -0.64386638578584
C            2.86107884029188        1.58160522302934       -0.48004130435172
C            2.01072513869942        0.47278198153095       -0.29045274614636
C            2.57330846596661       -0.74662985132332       -0.74020192684152
C            2.16311460125387       -2.02076221006807       -0.48683398304155
C            1.04876583007235       -2.30217357898188        0.36460460903071
N            0.00629273742116       -1.53904907912310        0.50247456347606
C           -0.29171929645884       -0.29780387687297        0.14424030549353
C            0.71353418145379        0.74903417631370        0.19469950165856
C            0.43258636923505        2.03313796748275        0.69955739741452
C           -0.77627860724811        2.68601501064875        0.79546623420197
C           -2.02402555057712        2.31948816424424        0.31143470340867
C           -2.40871421025450        1.09852093129024       -0.24018686514250
C           -1.63753773832476       -0.09649419973253       -0.21017419346424
C           -2.32566025530959       -1.28588244198172       -0.52387177335040
N           -2.91553439402945       -2.23469812106448       -0.79950190079993
N           -3.65320270544323        1.01038242924527       -0.77188943960145
H           -4.29240016825424        1.77914149151751       -0.67621344274641
H           -4.01487438391782        0.11658776135339       -1.05934538205648
H           -2.79657012824631        3.07699991021809        0.34923947945869
H           -0.72970952559469        3.67668572415341        1.23111671091816
H            1.30135502640506        2.60501832403111        1.00210726259083
N            1.04884446731548       -3.45584660068978        1.06534388812201
H            0.22961015638377       -3.69412745140533        1.59672786023781
H            1.73650311452876       -4.16347516753958        0.88069732691893
H            2.77254160295324       -2.84961315450736       -0.81476099050461
H            3.50289993306957       -0.63240079089342       -1.28689081599763
