23
 energy: -38.420556731638 gnorm: 0.000861580486 xtb: 6.6.1 (8d0f1dd)
N           -3.55970290153619       -0.71880871379507       -1.12259529653633
C           -2.52401801990633       -0.26854962752591       -0.36372232046023
N           -2.78063199233580        0.89196105608140        0.23664147616766
C           -1.92393550832394        1.67954301677605        0.85265359077952
C           -0.54427468020605        1.70684425763057        0.82568527787025
C            0.27178455114377        0.68942013099002        0.30891462125937
N            1.45351803411020        0.96586143858431       -0.17193663795066
C            2.52714080833772        0.22823686894357       -0.40057085319154
C            2.87803881772819       -0.91888345718594        0.33311534210669
C            1.92336328430869       -1.63092998754616        1.03719520184460
N            0.62521097657152       -1.60073679230289        0.87040088034770
C           -0.18045963379399       -0.72178220295050        0.31094591535739
C           -1.41045294083649       -1.10569243609297       -0.19954321787264
H           -1.53386705927010       -2.15510387562863       -0.43574776443239
H            2.25018348488282       -2.39154539007104        1.74039962375216
H            3.90863408400240       -1.24010534698402        0.34833366869088
N            3.38680893674822        0.72862808295217       -1.33172819862437
H            4.33400461638982        0.39483169685213       -1.34871900236640
H            3.20661068182185        1.65475306954349       -1.67922231183807
H           -0.04764976327891        2.60599000869731        1.16417569526731
H           -2.41987969714192        2.50468061797718        1.35938045734172
H           -3.58162251957951       -1.67647792962644       -1.42368314271450
H           -4.42671261123704       -0.21381505351782       -1.05544079879733
