34
 energy: -56.923058431703 gnorm: 0.000614206969 xtb: 6.6.1 (8d0f1dd)
N           -5.20455032810914       -0.16152865850280       -0.96268758365151
C           -4.16455061396084        0.02017444385717       -0.50342507959456
C           -2.88621014803638        0.20186734188802        0.04962225648436
C           -1.85938259643819       -0.57957388511658       -0.42751474242615
N           -2.02222935088625       -1.38373839767620       -1.50724202768399
H           -1.33197378193174       -2.09006781500280       -1.69313995883679
H           -2.92759322856673       -1.45875724194920       -1.94190098165027
C           -0.52893839241980       -0.58889620333953        0.19374734199966
C            0.06236032908840       -1.74440793339175        0.59653328220274
N           -0.64058519343262       -2.95513505002551        0.53641616116911
H           -1.64078818258313       -2.86980128761253        0.65396726696416
H           -0.25087771422705       -3.67673182575937        1.12508622453929
C            1.40771815638158       -1.84418495541077        1.09086243678328
C            2.47752864477527       -1.09331645052935        0.72916252521776
N            3.71450373763082       -1.32521022030675        1.29784350503160
H            3.84289668204213       -2.21583679547374        1.75050137365189
H            4.51641131692864       -0.99104838885129        0.78642991298826
C            2.44612159836109       -0.03117778633489       -0.26834252363540
C            3.62811499451048        0.17877832283048       -0.99432981827187
N            4.59924854032082        0.36441429185749       -1.58593261939272
C            1.37810640903354        0.79346101107895       -0.51963719968623
N            1.40730920414773        1.70675925885411       -1.51970940681202
H            0.67686955961323        2.39380828387711       -1.57471454836604
H            2.23559460355691        1.82129035320541       -2.08007399351191
C            0.12719441298774        0.72170851673664        0.24872929821847
C           -0.39215949664241        1.81410942505721        0.86134330006211
N            0.30446393216856        3.02729070622405        0.87356545306953
H           -0.00505963058003        3.66732929422746        1.58984001848900
H            1.31052192792370        2.94244125058466        0.84241146082667
C           -1.69252296080333        1.84921781785950        1.49391925757718
C           -2.78310387050878        1.15516478082787        1.12621027568769
H           -3.71852586063417        1.37182064930390        1.62791805170963
H           -1.80522545338548        2.58890282916936        2.27739743764417
H            1.59857413385707       -2.67265648332892        1.76369520806999
