29
 energy: -50.348083289805 gnorm: 0.000703680170 xtb: 6.6.1 (8d0f1dd)
N            5.30399717949020        0.09356661546599        0.68622327716570
C            4.17595319407187        0.25249954385586        0.51370953775981
C            2.80325231099906        0.40476958196031        0.29061994778972
C            2.16289493868041        1.57158984639212        0.72218543070798
C            0.87013451354394        1.98327408705067        0.50398764874776
C           -0.27286239912480        1.27915960210153        0.04588035529130
C           -1.41262239016141        2.02354307836832       -0.22593030752948
C           -2.75263613452181        1.63760254446418       -0.37224100502609
N           -3.62169644988223        2.62321592466294       -0.73512167926163
H           -3.27206791336210        3.51124827656765       -1.04453938392400
H           -4.58703497423781        2.40788337736885       -0.90290547795861
C           -3.31357084884361        0.40067954086775       -0.05182850869886
C           -2.67550023763324       -0.77050280850648        0.34105978756611
N           -3.46257298631827       -1.79431890801408        0.76339646096625
H           -4.46023553790236       -1.72789078162920        0.67230002987364
H           -3.05408132531992       -2.70014874650971        0.92027977095888
C           -1.28307168272555       -1.03056082921393        0.26591927574291
C           -0.89485010469757       -2.37209519212451        0.44975014162128
N           -0.62531497267384       -3.47820203684149        0.62052705778477
C           -0.21137231547348       -0.17120985495461       -0.06251972123176
N            0.85646227571767       -0.80417529054740       -0.50785030161795
C            2.14196006142173       -0.57418993200394       -0.51044630950778
N            2.88529269062142       -1.37240750241896       -1.31144928144321
H            3.88370960274674       -1.39412504181360       -1.18847777852226
H            2.43055304221039       -2.16229822856328       -1.73680794492911
H           -4.39632163346994        0.35707937712372       -0.07557468570594
H           -1.24929642684525        3.09307295655609       -0.30724100233191
H            0.65828691352119        3.00192774588003        0.80761073476404
H            2.80760047146476        2.28371807025839        1.22521347074872
