29
 energy: -50.351558376282 gnorm: 0.000532053436 xtb: 6.6.1 (8d0f1dd)
N           -4.87011547707661        0.17535247871782       -0.38375798275700
C           -3.72396300736495        0.17954755687941       -0.25376176697358
C           -2.33635141845401        0.21224240241822       -0.09407939478815
C           -1.59457125156192       -0.95569005386396       -0.33566563077111
N           -2.27525866358172       -2.03046111401069       -0.80254677146144
H           -3.27703993178928       -1.98157300199331       -0.88273421076243
H           -1.82482454226773       -2.92819945225724       -0.85686803606003
C           -0.20902775929962       -1.13516014608293       -0.05687137944040
C            0.19672837649872       -2.48160080448782       -0.06706020651447
N            0.48666126257043       -3.59737497799887       -0.07316503384882
C            0.83100992293691       -0.18080786511867        0.10633333524471
C            2.08842662808497       -0.66772753474668        0.48084764229678
C            3.36757418864449       -0.13363108741435        0.33981111526932
N            4.39212876232136       -0.83653670019170        0.90137268199985
H            4.21714083881272       -1.76018894016160        1.25759383847757
H            5.33842922748583       -0.61075090533733        0.65040950300981
C            3.71752825616234        1.01895945262734       -0.39032960659684
C            2.86425255285256        1.96436939700031       -0.90712449315479
C            1.49701540139342        2.09622719311956       -0.72186307984060
C            0.57810583291322        1.23266419464697       -0.12004417541225
N           -0.54470447936435        1.81744982707985        0.28379399629635
C           -1.76573358052904        1.40535711145407        0.45438705900338
N           -2.58163997870162        2.22759175052061        1.15467516026725
H           -2.22720667563307        3.12835930047582        1.42457678792213
H           -3.57529524457198        2.07372601608489        1.14175784624160
H            1.05781852136703        3.03224825921857       -1.04300167429398
H            3.33480717166651        2.76917721692537       -1.45906819533364
H            4.77765696115734        1.17177059318540       -0.54725752995718
H            2.07634064592743       -1.66767753338908        0.90240835763850
