26
 energy: -47.184393930872 gnorm: 0.000878248581 xtb: 6.6.1 (8d0f1dd)
N           -5.21442533641342       -0.14548230030985       -0.42039160274695
C           -4.06734648045620       -0.21485518327574       -0.36735301938568
C           -2.66815607823426       -0.28361813523561       -0.28220210791239
C           -2.01265580341194       -1.31568687690309       -0.95545888391354
N           -0.81669363994017       -1.75696501365366       -0.71971511029242
C            0.23382560105599       -1.28536713300940       -0.08848944567708
C            1.09030110719223       -2.21578894817757        0.52404260038231
C            2.40934153900746       -2.02664790477108        0.88074990885515
N            3.26636364150259       -1.10973844498855        0.48470027799108
C            2.99843801373999        0.01907517746186       -0.15261076048020
N            4.07539770952752        0.61510069817495       -0.70255814116317
H            4.01528627637923        1.54545137605431       -1.07987424614310
H            4.97400263518374        0.18787562825567       -0.55887968457770
C            1.75212676033097        0.71301072653598       -0.19301985696493
C            1.82878786268776        2.08766694138117       -0.46682425578782
N            1.92691944278139        3.21282492601740       -0.69389143331965
C            0.46929641709270        0.15611500912397       -0.00586802950759
C           -0.59592519944710        1.00319602427041        0.31452950342746
C           -1.97513090928011        0.78532964320962        0.36309139199195
N           -2.73384195636584        1.73516632993456        0.95821371230320
H           -3.73703725426381        1.68657529630369        0.89420805218061
H           -2.31292841235393        2.59313664440081        1.26907596568673
H           -0.29472678993509        1.99373921618057        0.63914634234113
H            2.87931251066935       -2.80210101702382        1.47860644761426
H            0.65342136195339       -3.18687711548356        0.71320000870790
H           -2.57436231338922       -1.89408930256453       -1.68218201830807
