29
 energy: -49.551693706760 gnorm: 0.000243699264 xtb: 6.6.1 (8d0f1dd)
N            5.00864721707800        0.00068097462271        0.00017432617181
C            3.85425824271639        0.00056360793724        0.00031285997037
C            2.45322634751106        0.00029617671386       -0.00000009196008
C            1.83126483057239        1.12365932355313       -0.60434822114601
C            0.48555304487732        1.46457942142687       -0.54007625782411
C           -0.59646583439056        0.73495903193030       -0.05141437429549
N           -1.64506617363461        1.41863286666292        0.35799115504539
C           -2.90324168881852        1.07527126409533        0.57344358735582
C           -3.58304422890497       -0.00058651107388       -0.00151622492945
C           -2.90258031099237       -1.07625220116186       -0.57604730445172
N           -1.64442867442938       -1.41924717851692       -0.35984396377064
C           -0.59626186481673       -0.73524355244352        0.05010228083615
C            0.48574264012605       -1.46451779642251        0.53933095840559
C            1.83131929574570       -1.12319744439317        0.60416462759912
N            2.65564673587354       -2.00089478756668        1.24858954893849
H            3.65153859889586       -1.91633915521869        1.13115787148826
H            2.29161963937389       -2.90061350034688        1.50791143233295
H            0.24269767132755       -2.47741253214850        0.83831465751205
N           -3.61409280266487       -2.01318819391393       -1.27851622611107
H           -4.49350780478282       -1.74478467733381       -1.68285876255292
H           -3.07072836973923       -2.70427941246297       -1.76732633296330
H           -4.66305108272584       -0.00073892650840       -0.00185476693702
N           -3.61545548595457        2.01199303804210        1.27548308621439
H           -4.49504052537145        1.74333115349249        1.67929023930748
H           -3.07259302938913        2.70324317161657        1.76462287644623
H            0.24234490490127        2.47742029551280       -0.83911148058448
N            2.65560519230518        2.00167339338920       -1.24830858478470
H            2.29140421112620        2.90127669022638       -1.50777333308940
H            3.65147761518305        1.91740033579048       -1.13049598262401
