22
 energy: -34.694834696025 gnorm: 0.000386284437 xtb: 6.6.1 (8d0f1dd)
N           -3.13412681870126       -1.22484752322372        0.93954106740280
C           -2.15849522235019       -0.57758376287330        0.25745662435880
N           -0.95226703080575       -1.02158883576615        0.39215193076253
C            0.18080454906753       -0.50436572070153       -0.10592550951543
N            0.99943572798887       -1.30220768433517       -0.70072280685761
C            2.31093422930215       -1.21781203052401       -0.89007349322036
C            3.20141488148138       -0.50067402589036       -0.13637964501782
C            2.85836189748086        0.58171940490400        0.70523023927170
C            1.67519755396561        1.25793100545432        0.75515634811829
C            0.44675854112143        0.93229717984406        0.09941336016014
C           -0.46903674785829        1.87230701172318       -0.28748084084496
C           -1.78551900097946        1.64095932935226       -0.75981219895617
C           -2.56291519685632        0.54674331679161       -0.55459762408042
H           -3.59301492969656        0.56401372741814       -0.88366727547502
H           -2.24847358968157        2.48040217374133       -1.26588535686969
H           -0.14565035149640        2.90630362313426       -0.28072293177692
H            1.63549987766964        2.14655923421696        1.37531957370729
H            3.67234932227258        0.99493502697510        1.28986113312206
H            4.25222341620714       -0.73907860595703       -0.22546903973822
H            2.68073439451104       -1.90636585992469       -1.64248183615065
H           -4.09945233752915       -1.06147273310910        0.71888800302429
H           -2.88351667811297       -2.06316647924932        1.43406373317523
