27
 energy: -50.925661093999 gnorm: 0.000609703249 xtb: 6.6.1 (8d0f1dd)
N            1.91044349140171        3.46495013381376        1.55763437870807
C            1.79544654061253        2.40058790095350        1.13866624354817
C            1.66745187276087        1.10062188716114        0.61109454665345
C            2.76728728879142        0.26716402502425        0.81388135264800
N            3.06716786131746       -0.89054467712779        0.27133801128862
C            2.20783892256546       -1.54723213234011       -0.51509786520791
N            0.89109881505058       -1.54642907108997       -0.45108810850636
C            0.03766677546696       -0.63722915183994       -0.04808099002493
C           -1.24668418767023       -1.09660066375472        0.31952287675474
C           -1.35100265035533       -2.46600041262231        0.62287204414838
N           -1.48458927056764       -3.57696530762920        0.88940396707309
C           -2.44270641348465       -0.33830027061043        0.38663374406101
N           -2.69971800857749        0.81883753617439       -0.20782278545410
C           -1.83435470566288        1.70892786229305       -0.65211971646535
C           -0.45156514873770        1.80140524708112       -0.34748808070853
C            0.39083262995295        0.78521075531240        0.03267113269041
H           -0.02284240813290        2.79366102353818       -0.41899755492948
N           -2.37964375569850        2.70703900073007       -1.37784280859529
H           -3.37773781255446        2.72470401600273       -1.49354163231300
H           -1.83651792766563        3.51112325170362       -1.63515610794677
N           -3.50559139052157       -0.88297028985596        1.01279363781185
H           -3.46102244113372       -1.82444554812036        1.36395963972802
H           -4.39208384401230       -0.41584394757363        0.93812908232655
N            2.76012656312493       -2.41370665939035       -1.38725636242569
H            2.16420181344939       -3.08146301993427       -1.84415157697855
H            3.74509930642369       -2.59533351286978       -1.30672659789657
H            3.56085015205210        0.66516867786803        1.44056480011177
