28
 energy: -46.610864812798 gnorm: 0.000524911924 xtb: 6.6.1 (8d0f1dd)
N           -0.73777673069321       -2.63429624601208        1.53509753110699
C           -0.89100717429788       -1.67832164693163        0.91027110596893
C           -1.16000666483521       -0.45441007199527        0.26436753911721
C           -2.52789542363349       -0.21735279619918       -0.02149147101759
N           -3.40021408706006       -1.21281310354068        0.26181343660837
H           -4.36332775655207       -1.12792486911433       -0.00867314096955
H           -3.06844599508236       -2.09477374367834        0.61453725238566
C           -3.04468604239622        0.94125351549382       -0.61068012297441
C           -2.38764884802635        2.14356241339489       -0.78813490256907
C           -1.10763957805027        2.51729477294015       -0.43134019161792
C            0.00030112040085        1.76464057717763        0.00629678636721
C            1.11023388688948        2.51514018913614        0.45150863757753
C            2.39385796608198        2.14189296967539        0.78576153882829
C            3.05311981855100        0.94148346246997        0.58693683601102
C            2.53087635000616       -0.21622944092432        0.00699012857470
N            3.39827847678976       -1.21400087033143       -0.28405025756225
H            4.36427478918074       -1.12994828435143       -0.02376621957228
H            3.06112633263004       -2.09725673230160       -0.62817070761118
C            1.15664993982834       -0.45674153335335       -0.26015402918818
C            0.88220226204720       -1.68955930126815       -0.88715859600003
N            0.72533329256220       -2.65351622945070       -1.49843715079064
C            0.00128200427121        0.32819442825803        0.00166722212680
H            4.10389523887402        0.90919166553488        0.84348237888456
H            3.00205542906820        2.93003916254173        1.21395595395298
H            0.88937945027258        3.56483757485425        0.60458014779435
H           -0.89131601970593        3.57067763694559       -0.56416888877603
H           -2.99107135343471        2.93498233091784       -1.21704482779459
H           -4.09072687038596        0.90538140441215       -0.88534837186090
