29
 energy: -55.158677491712 gnorm: 0.000790470067 xtb: 6.6.1 (8d0f1dd)
N           -5.03564590036933        0.03898369215630        0.08621568205355
C           -3.88617890335479        0.10816719759308        0.07082708776485
C           -2.48829406801654        0.21250717704632        0.04313424114853
C           -1.94496910113418        1.37673066453186       -0.60032215552608
N           -0.78892090307222        1.91482255963397       -0.32695283881543
C            0.25778496158837        1.40728808389677        0.29288539545619
N            0.97445349881327        2.17444796792093        1.06057080007513
C            2.25070281384051        2.13441811053118        1.36265721307200
C            3.25495177053483        1.52600184081888        0.64260890612985
C            3.08295989330050        0.47927945255127       -0.28411037342891
N            4.16709687770616        0.09357171827262       -0.99757948638818
H            4.13878759344296       -0.75484424734406       -1.53861960435306
H            5.05995387974976        0.51426469012131       -0.81103024318406
C            1.90226519182104       -0.29634105444725       -0.41303730437741
C            2.01207522196486       -1.46335193207086       -1.19648451005911
N            2.14017126607486       -2.36652755329841       -1.89658622878679
C            0.61411368700176       -0.01043363738759        0.09536152885862
C           -0.31916497396610       -1.00847502562976        0.37523157678915
C            0.18108121318765       -2.30602204570123        0.61099593763066
N            0.54614677588235       -3.36287579082319        0.87897803841024
C           -1.73477851264929       -0.85603520099417        0.54879698547653
N           -2.39186321926703       -1.87444215870457        1.14488175942177
H           -1.89900135534362       -2.71907582742497        1.38324418120438
H           -3.39822052549595       -1.87552754278513        1.16195411462320
H            4.27337594892990        1.83546473280061        0.83350281913592
H            2.52070208211042        2.76152251960485        2.20498155765291
N           -2.72089074326822        2.02827957656276       -1.48960241688203
H           -3.69052209471762        1.78070376727903       -1.59045756105496
H           -2.39998578149551        2.91614160278661       -1.83489998474659
