21
 energy: -34.981081756512 gnorm: 0.000622014716 xtb: 6.6.1 (8d0f1dd)
N           -3.00309021457476       -1.23744101458064        0.90635841760721
C           -2.11059462987156       -0.53971515220192        0.17504735872131
N           -0.91685968132054       -1.08916794309971        0.02932412051729
C            0.19899082442104       -0.49810540993828       -0.31197335880856
N            1.11074590052198       -1.19168695371359       -0.96248209770075
C            2.40119017057949       -1.23313849797970       -0.85483423457364
C            3.17356770924130       -0.62636041147552        0.14084963963927
C            2.78436315277320        0.53008126930943        0.79776830704048
C            1.63810085411372        1.29180782581799        0.58998750977626
C            0.45249361871995        0.92728861164960       -0.04773246396180
C           -0.51582081868153        1.85382472627873       -0.47189618293654
C           -1.84275338192414        1.58212092591820       -0.76286203315258
N           -2.59553379134857        0.55168886588942       -0.42511526555418
H           -2.41556950504547        2.37505343356609       -1.23657876899237
H           -0.17992653742959        2.87267643401001       -0.62106429047793
H            1.64183174458620        2.28718639456325        1.01929014176970
H            3.52392935451168        0.97391436101212        1.45429476381509
H            4.17985196070353       -0.98846694569430        0.29437214319624
H            2.89615440551878       -1.84547258379259       -1.60202769153266
H           -3.96896337177143       -0.96569966781271        0.85891269541277
H           -2.75158619112287       -2.15447444762598        1.23037854059558
