28
 energy: -45.801432685567 gnorm: 0.000523490013 xtb: 6.6.1 (8d0f1dd)
N            4.44466995662361        0.75569906352854        1.52291681875351
C            3.48724227229343        0.36379929596489        1.02247658165043
C            2.31393225518356       -0.10836322108400        0.40047425571038
C            2.23761211367473       -1.44009275086189        0.10938649147924
C            1.20863851718705       -2.09569720312620       -0.61148981115229
C           -0.07791928708377       -1.67962258702225       -0.76554616350388
N           -0.92295048181134       -2.28949592053354       -1.64819550199458
H           -1.91146496770295       -2.19602344063888       -1.47925509476596
H           -0.61432868126964       -3.13381477582963       -2.10148183530132
C           -0.67033263714344       -0.53542270421676       -0.04153179963018
C           -1.82958372045085       -0.67946328706326        0.65659177091110
N           -2.51353151569235        0.27757127202891        1.35216645824010
C           -2.54938460729998        1.52613594408091        1.04903912416878
C           -1.94179775767032        2.21835218984894       -0.03513891952314
C           -0.79663354874599        1.84430010086366       -0.66730941120731
N           -0.30667300562932        2.53789889532545       -1.72862408892759
H            0.52624992555632        2.21557350491684       -2.18776546136475
H           -0.88888455921116        3.20433303705782       -2.20512289380964
C            0.04356401317749        0.72721935796771       -0.18921608847276
C            1.36029343337920        0.90629141456229        0.01621669563083
H            1.76413643811791        1.90780255193583       -0.07529649155871
H           -2.41632373526377        3.14062023434592       -0.34581939275378
H           -3.21434709027872        2.11188164435519        1.67893801296036
N           -2.44742036855182       -1.93720048801160        0.75754438411990
H           -1.80504649948522       -2.70194541863398        0.91867910134843
H           -3.17579723728062       -1.90950235495553        1.45918712373766
H            1.48555313216117       -3.03311279635029       -1.08005170401846
H            3.09513017861679       -2.04956706835515        0.36968246607336
