24
 energy: -42.949199183292 gnorm: 0.000808142675 xtb: 6.6.1 (8d0f1dd)
N           -1.93914196079318       -2.90872887351947       -1.32367751927860
C           -1.79781892621341       -1.83823469030660       -0.93200216744572
C           -1.65552621991007       -0.51105945251509       -0.47699998040156
C           -2.75610806979607        0.34907034251147       -0.69394069820854
N           -3.05121886376470        1.47395427164409       -0.12533313938249
C           -2.25594312479412        2.17863181102601        0.69348186272780
C           -0.90092726275683        2.16717304300097        0.81511940875435
C            0.02136043221446        1.20318165654333        0.28784288113739
C            1.31619948348377        1.57428197905157        0.03169444986477
C            2.39285017534447        0.74591277362478       -0.42660988692369
N            2.58928619439644       -0.52615594824600       -0.16908494342795
C            1.68171406730698       -1.26050450760912        0.50314130326462
N            0.37927592075084       -1.18661653140882        0.42727852147055
C           -0.40886987964937       -0.18043673475276        0.08063580794903
N            2.19058287407533       -2.27304843192987        1.23155504351954
H            3.16460744498501       -2.49282001548559        1.12168858824720
H            1.55797868780907       -2.97348742393039        1.57712436882689
N            3.38739666421691        1.35920904092027       -1.09777099357346
H            4.16005293110202        0.80444618505175       -1.42120033362871
H            3.33914270491144        2.33456294385777       -1.32739095167676
H            1.54141215854092        2.63235838935844        0.09466889957268
H           -0.44547094459371        2.98302676569134        1.36395160499797
H           -2.80324824448121        2.94985812386697        1.22736258593059
H           -3.52588804618318       -0.02402885474560       -1.36531237001237
