26
 energy: -42.366959744245 gnorm: 0.000542253156 xtb: 6.6.1 (8d0f1dd)
N            4.10338521166343        1.01520959595999        1.57185913333138
C            3.14416295629395        0.66222335423416        1.04892976660865
C            1.96351787917580        0.24190968398418        0.39196318730924
C            2.12549370807686       -0.87945101007245       -0.53994968224167
N            3.42057924928542       -1.11033280692585       -0.95089780403050
H            4.08243490442263       -0.35497485216407       -0.88927929783232
H            3.55085422370462       -1.75036056432885       -1.71547982204592
C            1.13042632341274       -1.73369454406563       -0.88056133761983
C           -0.22294241272375       -1.70332803156861       -0.41016573091587
C           -0.92772739995913       -0.62715513019321       -0.01940718922959
C           -2.30718370956093       -0.78186321909621        0.53156101983671
N           -3.36412167829713       -0.22831670622847        0.07131895085108
C           -3.41518688989628        0.80585038831853       -0.79551051523165
C           -2.51329568828518        1.81571218399471       -0.89483567820249
C           -1.22183776174515        1.83220716373382       -0.29734042320203
C           -0.46991277483071        0.75391560287213        0.05821853948447
C            0.84405881969277        0.95793972399473        0.64050218961828
H            0.93878428468021        1.79977705150083        1.31964280450502
H           -0.74896615299534        2.80399510252430       -0.21348128193251
H           -2.80255640051678        2.70358753215528       -1.44018230200108
H           -4.36370518546924        0.87558033802589       -1.31386359967354
N           -2.40859830415940       -1.60177453794133        1.60209196795147
H           -3.29160286305695       -1.68568276740616        2.07371491993866
H           -1.61112466838703       -2.11206550320156        1.93320709343790
H           -0.73753504184950       -2.65735191491125       -0.42975890369775
H            1.39644111662431       -2.57797446129361       -1.50442278791050
