29
 energy: -49.549006356237 gnorm: 0.000547770558 xtb: 6.6.1 (8d0f1dd)
N           -4.82945206995005       -0.36375012070086       -0.50025718719830
C           -3.76278902861255       -0.06987391583142       -0.18093025154154
C           -2.45004562079131        0.25050555229399        0.20520807058457
C           -1.42660731902446       -0.44815477339272       -0.39314673577912
N           -1.65867683746823       -1.26627778323916       -1.45391538276659
H           -0.96116948730875       -1.95827416390379       -1.67402003950843
H           -2.61173598734100       -1.44671932714136       -1.72780154388640
C           -0.02582819959487       -0.33181225222245        0.03141613258515
C            0.75760821237531       -1.43475439816165        0.24150025641561
N            2.05633619860816       -1.45237637042563        0.63779697599136
C            2.91429061098866       -0.50613984803795        0.40803779160785
N            2.81591131310316        0.50556834392232       -0.49203032148796
C            1.72268850070712        1.13479952665182       -0.74244163889818
N            1.65078248846381        1.92888909487136       -1.82662475764917
H            0.83759280293895        2.49531239107365       -1.98673551776658
H            2.42794271023664        1.97247716995797       -2.46280574497021
C            0.49343206043435        1.03090254199837        0.08323842630302
C           -0.05509853017172        2.08681283705334        0.70363419174222
C           -1.28414040084812        2.07630942140192        1.45026267882604
C           -2.33028715554113        1.25997658024351        1.23265517630536
H           -3.23276359224464        1.41569310030779        1.81172110317103
H           -1.38570905836592        2.84910986746705        2.20072078781841
H            0.47264013826885        3.03283593422446        0.66911669647847
N            4.12167747333759       -0.58975204430320        1.03306161669925
H            4.87679880565814       -0.05772610576267        0.63693660706383
H            4.34112497816753       -1.46863386466956        1.46927797709261
N            0.21540294660686       -2.72419098875460        0.13786801219228
H            0.85600075829640       -3.40339887240520        0.52654471975397
H           -0.71221977922867       -2.81936728621584        0.52967845792156
