27
 energy: -41.284332861483 gnorm: 0.000699152627 xtb: 6.6.1 (8d0f1dd)
N           -4.38168138970233       -0.21185666512524       -0.69281854370959
C           -3.04787788165745       -0.05056674876156       -0.33516736131088
C           -2.61495701704995       -0.91231847036577        0.75275790934646
C           -1.36584311163656       -1.25992227445265        1.07819789067784
C           -0.13243618677391       -0.84848638184511        0.41052165706677
C            0.87031513854493       -1.74788732927225        0.23115504845094
C            2.13776798388909       -1.53069092370521       -0.37166695469029
C            2.77050862581257       -0.32654306065328       -0.48898434702917
N            2.43082180106462        0.80819911319567        0.18388365928971
C            1.24745735841546        1.16923973148851        0.51054475236361
N            1.11548363390657        2.24293449854793        1.33348680320999
H            0.20896229968977        2.47166380687904        1.69966178417087
H            1.93320884096505        2.57827968702483        1.81323360041609
C           -0.03414552867537        0.56298317240352        0.06394277676447
C           -0.98865387868417        1.33800545755673       -0.48346664013108
C           -2.31161083127001        0.94749033884861       -0.87758602584942
H           -2.78759888601472        1.57752770446925       -1.61978406057899
H           -0.72868554993293        2.36747072006532       -0.70279993616373
N            3.94134635960437       -0.19570266883041       -1.21828608864546
H            4.46991385835014       -1.04180289169198       -1.36004182109519
H            4.49496755678898        0.60688511708853       -0.96208763678162
H            2.65808578022402       -2.40601718069826       -0.73899559833755
H            0.65380343652643       -2.77527746104862        0.50258548624686
H           -1.23361607754696       -1.94562827562702        1.90923484977403
H           -3.43075763679133       -1.33854970230492        1.32557434118511
H           -4.64832395780598        0.21660538493485       -1.56567838534557
H           -4.76106371804032       -1.13689793012083       -0.56360439419412
