27
 energy: -46.889508280547 gnorm: 0.000698760352 xtb: 6.6.1 (8d0f1dd)
N           -2.45018538009273       -3.54531075673603       -0.77557256445447
C           -1.88029624769321       -2.58715465623723       -0.49173150300206
C           -1.19637827468996       -1.41297227680225       -0.13057310736684
C            0.09093727061363       -1.60186635417765        0.48563394024924
C            1.10495686013963       -0.72415505014077        0.48501059913202
C            2.38986637040912       -0.97883751862162        1.18022248771232
N            3.53457181491441       -0.96535914011834        0.65176941735192
C            3.85604850475381       -0.55857465133740       -0.59629192917012
C            3.29089198039974        0.50262407478123       -1.22687595117768
C            2.10024461073391        1.16338266546583       -0.80611213537315
C            1.09968517320427        0.62503114139736       -0.05867005727957
C           -0.04295052749097        1.45686668876590        0.34480019902589
C           -1.35306891801646        1.06452071037252        0.18880489084822
C           -2.34358277616537        2.01655396216825        0.49807067810232
N           -3.14697858385040        2.79762545407829        0.75884348141612
C           -1.84693942047315       -0.20877152401936       -0.30650157864883
N           -3.06590646433072       -0.17485567719251       -0.91520910803436
H           -3.53242677982811       -1.04822197120924       -1.09892178408061
H           -3.63582942488334        0.64996864672282       -0.83091044891955
N            0.26168538540921        2.66937141973764        0.85750541319321
H            1.22126432598799        2.95647864978137        0.93025950116879
H           -0.46453861109424        3.29157903308641        1.17136883587121
H            1.94507284495649        2.16096185555633       -1.20064592687095
H            3.80427641444048        0.92803363611358       -2.07802033865582
H            4.75700436503338       -1.01534248550368       -0.98292769584183
H            2.34294404630476       -1.17336029449222        2.24829475911280
H            0.26083110520697       -2.57968819653672        0.91882463069138
