28
 energy: -55.454770530034 gnorm: 0.000530649883 xtb: 6.6.1 (8d0f1dd)
N            0.12522839493739       -3.23913567005676       -1.81123206132187
C           -0.21919412966592       -2.29122610679453       -1.26339356191343
C           -0.66621271623920       -1.09259156231806       -0.66082515137916
C           -2.02958693237971       -0.82194709597524       -0.80370192849803
C           -2.78043693894172        0.15874228829001       -0.17558379368725
C           -4.17951180518169        0.13431738090278       -0.30562311540508
N           -5.32623018634431        0.15608408893291       -0.38543692260625
C           -2.22463317606178        1.15662985742580        0.69941796582467
N           -1.01628340204874        1.63783239895053        0.58762417517226
C            0.05874827217989        1.18604040189055       -0.00876696451758
N            0.89778653997111        2.04702597915895       -0.53061496352712
C            2.19641084778853        1.89766616720176       -0.70456506486872
N            3.02776760632894        1.18352692471004        0.06025512894988
C            2.71054620142223        0.05875657643031        0.66169145866391
N            3.62896007901255       -0.43036627644983        1.51226503023422
H            3.54205473192586       -1.36581537842457        1.87330930312200
H            4.50106973986029        0.06200147343931        1.60163114259288
C            1.54434890799998       -0.75030596108949        0.39287616090917
C            1.65783807294229       -2.10961604744183        0.73922129296996
N            1.80820786272366       -3.18555673517565        1.11656895921949
C            0.32669323577365       -0.26574223209471       -0.08204923949118
N            2.77845154176974        2.66955202108682       -1.63660569807666
H            3.78087002770535        2.71768972026804       -1.66959361776992
H            2.22015689354349        3.34570974984521       -2.12631649842939
N           -3.01502017355897        1.69538063638049        1.64670365827792
H           -3.99966187229755        1.48982042831973        1.65801572331509
H           -2.66177888581523        2.46558640036719        2.18743636865141
H           -2.58628858383380       -1.53937718356939       -1.39657097340507
