28
 energy: -51.428662256315 gnorm: 0.000495098220 xtb: 6.6.1 (8d0f1dd)
N            5.50176736845570        0.40423616186564       -0.21474154878057
C            4.35841233349952        0.32625272203343       -0.11911557857622
C            2.95545817553081        0.25958467946875       -0.01577883828414
C            2.43438217760912       -0.94175792451343        0.46860420605191
C            1.12778999302631       -1.38439451509225        0.50316254687037
C            0.94969428122649       -2.70921621451375        0.95975711493121
N            0.81131273436845       -3.78109919841003        1.34850216616260
C           -0.06607649691808       -0.70413116041962        0.08539399107873
C           -0.15588547025580        0.74709405635746        0.15698728126038
N           -1.28004346091943        1.31059496050956        0.60843954367467
C           -2.53405936795195        1.03712917834789        0.47381342340153
C           -3.07616018819648        0.08531661379371       -0.48391637653494
C           -4.39806523170607        0.28077015789081       -0.90827276164725
N           -5.48064411457201        0.48867032980878       -1.23786757951708
C           -2.39370416255942       -1.06302648763601       -0.81929479333144
C           -1.11602619012969       -1.46122788231345       -0.40986995404970
H           -0.89181940362214       -2.50729828583470       -0.57975138954598
H           -2.94379429943591       -1.78699276012663       -1.40914945738714
N           -3.40907667696849        1.70668028705319        1.24604488676395
H           -3.06359957387190        2.38535237521156        1.90163842806222
H           -4.39860852590018        1.61338751012413        1.09632099195760
C            0.86421290865873        1.63273966245711       -0.15026434365606
C            2.23354804739258        1.43227342692838       -0.36055828507322
N            2.94458265857571        2.48037428858603       -0.83042782069824
H            2.49330971300543        3.35816941223760       -1.01584546787307
H            3.94602569418983        2.41980533851248       -0.90944820988824
H            0.53378723523886        2.66238710266010       -0.22582624181339
H            3.17731284772108       -1.66337206826581        0.79308516036857
