27
 energy: -51.707404496407 gnorm: 0.000762759610 xtb: 6.6.1 (8d0f1dd)
N            5.19593188013828        0.63559400371635        0.07840861943324
C            4.06321469832141        0.44015438154748        0.09961507615638
C            2.68986228237298        0.14655533282720        0.09954811278206
C            1.78898787744991        1.07913268298816        0.60006400273516
C            0.40007037932184        1.07252918343532        0.51859381238455
C           -0.22165404193213        2.23887912151681        1.02520927967035
N           -0.68393751820818        3.17430863160590        1.50302689690005
C           -0.48872623630005        0.02291833879424        0.12983291391055
C            0.00471289351629       -1.34825053774977        0.27363126112366
N            1.17166598683564       -1.71109580554530       -0.18239515525907
C            2.27807757151680       -1.08444025616360       -0.50142736876872
N            3.10711108868089       -1.70895245531803       -1.35736781646003
H            4.03486063239545       -1.35252045361892       -1.51164685639443
H            2.85706415559927       -2.61693708862581       -1.70800024706515
C           -0.75951820552198       -2.30920125639380        0.97397392178123
C           -2.12415040017092       -2.31048232054807        1.13136438730764
N           -3.04512098455233       -1.65883564192266        0.44322432174928
C           -2.88536613097836       -0.61021992768523       -0.33284324113271
C           -1.78308674318245        0.31838049437197       -0.28872922237453
C           -2.05764363822515        1.60003824380814       -0.80557965028944
N           -2.33874974436618        2.58358463884766       -1.33083667370485
N           -3.91883676078810       -0.32621862738112       -1.14456813937998
H           -3.95637805731061        0.54700739837182       -1.64388783335779
H           -4.74323309803702       -0.89882609499537       -1.07612922599321
H           -2.55324634611592       -3.03955479006104        1.81145991079537
H           -0.19379421408858       -3.12049332014931        1.41023258389176
H            2.22370395724139        1.97711629883471        1.02486984677227
