23
 energy: -38.424355709947 gnorm: 0.000557596195 xtb: 6.6.1 (8d0f1dd)
N           -3.64123402632108       -0.72508864937889       -1.13246344633763
C           -2.60304254442606       -0.22466727235264       -0.40426501956918
C           -1.50924523414393       -1.08794711221529       -0.18725139814805
C           -0.24093325845448       -0.78872846372123        0.27226547458062
C            0.66064933749501       -1.78843315844596        0.70734779332178
C            2.02975652230995       -1.67834720533919        0.82174678121091
N            2.86598107555146       -0.78816678391661        0.30629890584353
C            2.45396398680093        0.31138838595297       -0.31924291065983
N            1.35186676004293        1.01449222665082       -0.11196159196666
C            0.20607270057329        0.61120268867436        0.37007184664525
N           -0.54453561874047        1.49722647055539        0.99960919094713
C           -1.83534047147577        1.65541612292861        0.99665486107045
C           -2.77234965437684        1.03605448288641        0.18021959422449
H           -3.75131839856627        1.48928243216639        0.09969103173429
H           -2.18457760377940        2.42966730140090        1.67385588067409
N            3.34261314584810        0.85125579428645       -1.18685027204912
H            3.18355714204905        1.79121001265262       -1.50373706185611
H            4.27860069151840        0.48593310620953       -1.17577001165141
H            2.55208085031014       -2.50189425962011        1.30219576138843
H            0.21852442749576       -2.72964796823513        1.01164867969487
H           -1.67909602520088       -2.12674907283565       -0.45079596577501
H           -3.65197477823585       -1.69960421341220       -1.37619318984784
H           -4.51467738927327       -0.22935040129111       -1.15107553657476
