25
 energy: -43.447561699969 gnorm: 0.000597627765 xtb: 6.6.1 (8d0f1dd)
N            1.82220618901257        2.95820738014941        1.75548714017951
C            1.89759089243295        1.98988109245830        1.14187137630024
C            1.98166825203885        0.79912271072626        0.39167265373050
C            3.22693679731913        0.35290386798300        0.05756027104438
N            3.56539828808125       -0.66296291857467       -0.74917063440510
C            2.85354809331810       -1.72914829755349       -0.91357150465740
C            1.64841876445762       -2.10153268045351       -0.27348387848295
C            0.63739849876357       -1.27596203733082        0.16450115201229
C           -0.51904635881995       -1.90189142971806        0.75273602019020
C           -1.81421491062370       -1.51565189387795        0.72044934323602
C           -2.40552029408838       -0.39435024126787        0.07411002007644
C           -3.80592027081938       -0.42822678858671       -0.06223654617945
N           -4.94908892300734       -0.43792207213322       -0.18814309115006
C           -1.74415825258430        0.74892580539494       -0.37008215733483
C           -0.35207587700080        1.01150108593038       -0.17399390994877
C            0.68771336433600        0.17195514350278        0.06992838464637
H           -0.09638575507336        2.06231286625426       -0.26205040747872
N           -2.45653295505702        1.73995913217380       -0.94755846400602
H           -3.45626827650581        1.65856177604087       -1.03173802084102
H           -2.02010851635248        2.61577752549951       -1.17443729789840
H           -2.53097735483152       -2.18214990168359        1.18624671580363
H           -0.30724336209235       -2.84526904369459        1.24096793388598
H            1.43991503266838       -3.16423231534391       -0.24948270211614
H            3.29586798380408       -2.46127241947312       -1.58351026304701
H            4.08069271982526        0.93197693498009        0.39652809324266
