27
 energy: -50.923596803956 gnorm: 0.000956724321 xtb: 6.6.1 (8d0f1dd)
N           -5.19801212423663       -0.17132222085916        0.76261527911294
C           -4.05987255269957       -0.26307599846514        0.62289251793356
C           -2.67561252059791       -0.34453414189195        0.41634649631347
C           -1.88921976514573       -1.16552543795946        1.21767693213219
N           -0.68052590615444       -1.59059827886251        0.95174539455174
C            0.26381463174104       -1.11621547082413        0.18454418011114
N            1.18204903772155       -1.90570249746446       -0.31430298216707
C            2.44773614594710       -1.60251458619290       -0.54134309627806
C            3.16898604427008       -0.53159765246953        0.02437278835415
C            2.66711269124436        0.67642153231931        0.48238473173529
N            3.52779868983262        1.55408258106869        1.05801237138446
H            4.51385601949580        1.36333381536973        1.04923578230350
H            3.22691704517069        2.49881603385410        1.22986305977505
C            1.32426262956422        1.14266730584332        0.29049014334935
C            1.09447443376134        2.52246692377124        0.43280721955497
N            0.93447180423464        3.65409116515255        0.56099249319074
C            0.23448818476637        0.35214923685111       -0.06256439709036
N           -0.84383195007309        0.85032544285481       -0.62649348645226
C           -2.09202360667883        0.45651405805481       -0.62434823608597
N           -2.88738171566220        0.94437024816988       -1.60231003462573
H           -2.50992331283133        1.65512697291858       -2.20562172728149
H           -3.88614467212043        0.87580282625721       -1.50060112363365
H            4.24504694233706       -0.64766140201501        0.06114507052518
N            3.11886150750900       -2.50171483532683       -1.30063083996501
H            2.63629653875262       -3.34751740659133       -1.55026020614397
H            4.12228228754739       -2.49117616673506       -1.33009796633016
H           -2.33354823449416       -1.60860965133734        2.10272935342983
