27
 energy: -46.891189883381 gnorm: 0.000938943125 xtb: 6.6.1 (8d0f1dd)
N            2.71548811679979        3.11713505293428       -2.00197680110330
C            2.28588693980668        2.23191282746403       -1.41178074482603
C            1.73874073699540        1.15915282779871       -0.67109116839963
C            2.50822730490676        0.07389360829578       -0.44331161807237
C            2.12818360469438       -1.10464260297335        0.31094274211000
C            3.20893237988692       -1.89047181408864        0.77218978801976
N            4.08728681792114       -2.52221465291421        1.15569996837637
C            0.87222939601085       -1.58292848927085        0.52054321945373
C           -0.37690573817898       -0.99103121912530        0.10898618662142
C           -1.40970164525079       -1.81593047235260       -0.25834446573066
C           -2.69340769167945       -1.46197028485942       -0.70903810034649
C           -3.32131848936245       -0.25664568875248       -0.48575678208415
N           -2.94986702273795        0.63779974481104        0.46208029056775
C           -1.76178905783562        0.88071483035710        0.87268798671018
N           -1.60602929552504        1.59978149508276        2.00326562889196
H           -2.41677716071703        1.83816843209103        2.54734741213006
H           -0.69184514821943        1.83978946973169        2.34037614461308
C           -0.49512748423833        0.46184546098020        0.20488844632948
C            0.40964907850444        1.39535449600344       -0.11620792343035
H            0.15506343985710        2.43947792841663        0.02179715879249
N           -4.49348906331977        0.06077575876740       -1.11560362925890
H           -5.03466745957514        0.80302721846384       -0.70559586190469
H           -5.00369425742884       -0.67799621787181       -1.56786538922582
H           -3.24548399814682       -2.21426042844062       -1.25554461671842
H           -1.17078222978532       -2.87124438026728       -0.31668436986946
H            0.79759661373300       -2.55290405020913        1.00336192414003
H            3.52013501998678        0.06623103532394       -0.83093865168645
