27
 energy: -46.900689526988 gnorm: 0.000692629489 xtb: 6.6.1 (8d0f1dd)
N           -0.98293425688291       -3.79610031341291        1.21726529803278
C           -1.22640223433129       -2.71974850701108        0.89302160454559
C           -1.53662286621157       -1.40184938934466        0.50432204469673
C           -2.88704584486044       -1.13392736836200        0.32882251481289
C           -3.50731369814188        0.00626326795871       -0.14382561339937
C           -2.93932316141463        1.26988899307533       -0.33880650843324
N           -3.73970472935192        2.24162710919817       -0.84669889638261
H           -4.71815727587531        2.06554765782520       -0.98877221549195
H           -3.41840512401372        3.19228134627269       -0.88025003329780
C           -1.64159707703766        1.65848249326358        0.03968941241539
C           -0.55150347859305        0.90209530588279        0.41763111510950
N            0.42781120226310        1.57629834480786        1.04515822903982
C            1.70706548944234        1.49835583553723        0.98921219890182
C            2.49493932974969        0.70414654498507        0.12667698902496
C            3.83747891165661        1.06160615096816       -0.05699859087579
N            4.93734305723944        1.35360856642717       -0.23065427620322
C            2.04473051907778       -0.53529028835169       -0.37992636963387
N            2.93080815910623       -1.29350266372262       -1.06589938331136
H            2.70784334006465       -2.24596093342035       -1.29509091371527
H            3.88294191223280       -0.98264664454872       -1.16482897181017
C            0.77888473473085       -1.10813358637020       -0.13385066407617
C           -0.41724081860971       -0.53665878959118        0.25954386742445
H            0.72581112853155       -2.16680157637160       -0.36398032541538
H            2.23348074525704        2.16860524427868        1.66349313007656
H           -1.46470191797923        2.72729939753968        0.07199317805161
H           -4.56684011510763       -0.07287392659667       -0.35030072311766
H           -3.54198330754868       -1.97648188811673        0.52253598953051
