22
 energy: -40.276653112551 gnorm: 0.000663830500 xtb: 6.6.1 (8d0f1dd)
N            4.45767741754348        0.81869407286721       -1.84088884906354
C            3.58512720086878        0.39996429049255       -1.22572192351896
C            2.49513919932399       -0.09770874514619       -0.47684993082621
C            2.38349156099089       -1.45584270197095       -0.30058718283879
N            1.64606842080824       -2.02014920096707        0.66314244804419
C            0.52442049514684       -1.66357035185947        1.11936136318678
C           -0.34647704050639       -0.63759262962500        0.49441027445894
C           -1.61979124916852       -0.87396130922542        0.10808767683941
C           -2.49476543965728        0.10257855606215       -0.47751545392373
C           -3.58451398165284       -0.38746531553534       -1.23176787573359
N           -4.45619172374930       -0.79905797684650       -1.85288084776236
C           -2.38326233910576        1.45880725659656       -0.28707148778410
N           -1.64649904331321        2.01307247308513        0.68297802661371
C           -0.52514768819647        1.65178421754955        1.13622067951900
C            0.34618798480428        0.63235174863358        0.50124855304008
C            1.61976161236062        0.87271452359468        0.11824343237009
H            1.99213416016505        1.88693341822480        0.18541132358639
H           -0.19096052537774        2.10393780230967        2.06420806920827
H           -3.06505617327023        2.13787559149607       -0.78111223075915
H           -1.99224039845718       -1.88880730054792        0.16455521062900
H            0.18959730454101       -2.12534696509291        2.04236347085023
H            3.06555674640301       -2.12975824349590       -0.80126932843668
