29
 energy: -49.546217746733 gnorm: 0.000229131323 xtb: 6.6.1 (8d0f1dd)
N           -4.15862041761416       -1.75710321600361        1.88021722540054
C           -3.38794791362358       -1.12829215917805        1.30346016311720
C           -2.44021571452419       -0.37208350940931        0.58822438210577
C           -2.70852492245858        0.94694238219277        0.35671920077857
C           -1.95347336743854        1.85791203253308       -0.42175930176109
C           -0.62618129209329        1.78804568418073       -0.72872402319669
N           -0.06653361571047        2.64201390065790       -1.63264093757915
H            0.93147346254408        2.77154795619642       -1.58996961941449
H           -0.61946628222310        3.40670917596142       -1.98282833794722
C            0.29448917932315        0.79403127504293       -0.15261180431119
C            1.50533029360934        1.14818134429063        0.37218586845802
N            2.42707472866334        0.32615788724298        0.93904943937848
C            2.57228221914982       -0.93097471185122        0.65512700468979
N            2.09340143242335       -1.60211216532033       -0.42501602922776
C            0.93432547935019       -1.39420724639613       -0.93932734272674
N            0.65393529098579       -1.88281303294105       -2.16309688669307
H            1.35738696457679       -2.40647758768531       -2.65502488668609
H           -0.29145839464891       -1.88018408023326       -2.50125470813879
C           -0.13343952129604       -0.59400826943130       -0.28740874204656
C           -1.32375825754316       -1.11380693549225        0.04077598419779
H           -1.48545442070394       -2.17762872556415       -0.09021994249250
N            3.40916180647676       -1.66041530303529        1.44438302300314
H            3.75821354342746       -2.52287736161635        1.06454426989674
H            4.00258815236806       -1.14353911148286        2.06981900973239
N            1.88027317811670        2.50200486171641        0.44464712091547
H            2.70160912346985        2.59759504114115        1.02787131782447
H            1.13694155133385        3.11371982886503        0.75665186821410
H           -2.49854979005434        2.71762215029844       -0.79466195597867
H           -3.65223065798518        1.32438838552086        0.73416676358579
