30
 energy: -60.458535650543 gnorm: 0.000772397987 xtb: 6.6.1 (8d0f1dd)
N           -5.86470139171496       -1.03154860276960        0.07014391349333
C           -4.73937953737341       -0.81437947948539        0.11144223737137
C           -3.35298453837629       -0.55986816714551        0.16704285883892
C           -2.82946714577474        0.48478938869219       -0.59657195769142
C           -1.55390398977981        1.03772019806100       -0.52483155978398
C           -1.36964651136673        2.20015767755081       -1.31686280392262
N           -1.23408401278315        3.10213436046878       -2.01152942553520
C           -0.36619722743707        0.54715829442230        0.09480671133273
C           -0.31195305690056       -0.90028446337098        0.30063362272662
N           -1.29055478899453       -1.46681703433029        0.95731423722178
C           -2.56498955303912       -1.30339629555059        1.06685807659686
H           -3.03905381142699       -1.84925137178531        1.87405503015041
C            0.75406588967862       -1.69214267335289       -0.15851857461373
C            0.45189064090867       -3.05796029124843       -0.34782450524025
N            0.22960710169408       -4.17025900736247       -0.52671125360620
C            2.08772543626649       -1.29339479239238       -0.40572273279888
C            2.67796737194420       -0.08046645420983        0.04308393794659
C            4.08691531452386       -0.04619410169843       -0.01183263296124
N            5.23584681846202       -0.01930627506243       -0.05618341127306
C            2.06702652730921        1.08652877375040        0.54561595608486
C            0.67896462815042        1.40558026124726        0.41944749256434
C            0.33927913594095        2.75357733236230        0.67931874627185
N            0.10059450928755        3.83576805243427        0.98052084232557
N            2.86114883364845        2.03559667515565        1.07134034045394
H            3.86172134619566        1.91969379856932        1.07145720994571
H            2.47523453910804        2.92875723407943        1.33322937283187
N            2.89591535844189       -2.18919503816804       -1.00039483780680
H            3.88328156546987       -2.01082252868424       -1.08621895134974
H            2.54323628374833       -3.10223412538289       -1.23846949994611
H           -3.52903319071070        1.01133905620688       -1.23596609942719
