25
 energy: -42.652578436275 gnorm: 0.000705558596 xtb: 6.6.1 (8d0f1dd)
N           -4.54051471784409       -0.13291428265171        0.58932146135429
C           -3.45305041320377        0.03117038697267        0.25188395208113
C           -2.11692391784773        0.22027442318926       -0.14331173848504
C           -1.16213813127448       -0.63966230699505        0.35663910610116
N           -1.46616682561344       -1.55536822630579        1.29974814409460
H           -2.40646364550291       -1.62491928032319        1.65376825422317
H           -0.79234219935693       -2.25708970873852        1.55228906669481
C            0.22428123694264       -0.63923068077573       -0.13862013459394
C            0.83383173479613       -1.79986033064651       -0.49190027687360
C            2.17120796879308       -1.94350778903439       -0.95875368119905
C            3.18580222294947       -1.07286076670523       -0.72175014301112
N            3.19041067332988       -0.06588358490365        0.17593289493660
C            2.18777718100224        0.62898996295411        0.55808114878794
N            2.27956618152920        1.36586152836784        1.69111793131283
H            1.63953351307670        2.12647865743009        1.83851706150133
H            3.16984853871165        1.39382184465145        2.15953715609950
C            0.86167016307578        0.66902438100867       -0.12416119512560
C            0.33345241141810        1.81467903855388       -0.59244821425898
N           -0.82782443462918        1.97363465766899       -1.29122690817107
C           -1.87547634157087        1.26713831459500       -1.11435348625636
H           -2.73062582256329        1.54712459387200       -1.72299630363111
H            0.90766747994251        2.73283344269274       -0.52992768022863
H            4.16316690272679       -1.25771975029273       -1.15028312932650
H            2.39238924390151       -2.84234997464831       -1.51712403983091
H            0.22411022541174       -2.69653115623674       -0.51403659999593
