26
 energy: -42.367590322624 gnorm: 0.000969123260 xtb: 6.6.1 (8d0f1dd)
N            4.63929123613473        1.00871631933251       -0.23095030884667
C            3.60493002116348        0.53438936410128       -0.05847242656076
C            2.32667465115788       -0.01776078994106        0.14603716189266
C            1.24893817766045        0.70237916978444       -0.31187147850472
N            1.42813484903468        1.81394707767440       -1.07055382380830
H            2.36099054956222        2.14804166498014       -1.25030732865827
H            0.64984543638578        2.42131452167091       -1.25483657208830
C           -0.14972424614880        0.34987898237525       -0.02602781002079
C           -1.00521451739815        1.30427751612310        0.40631495792097
N           -2.30924844625410        1.18349867622177        0.77212168326164
C           -3.14789831844339        0.35923111529303        0.25074055694781
N           -4.43001884832907        0.40033826591830        0.71347948020910
H           -4.58084652131444        0.91465386551526        1.56518362457290
H           -5.04856019908253       -0.36623856009725        0.51496665169632
C           -2.91681746846518       -0.51937593297698       -0.89807738514724
C           -1.75796711383660       -1.12689698915768       -1.16022825432148
C           -0.54695214944554       -1.02629041457840       -0.33692313635224
C            0.12373265847812       -2.13723379021198        0.02414048510875
C            1.33498853833833       -2.21246281639139        0.78671846599620
C            2.29780992069416       -1.27428918617334        0.85220181482052
H            3.19999888609627       -1.49970532576742        1.40722941048635
H            1.50646275886940       -3.15027166035717        1.29882899736515
H           -0.31477376726039       -3.09057698375971       -0.24796194346266
H           -1.68825924761055       -1.77174919369725       -2.02967583436285
H           -3.77071525400766       -0.68284121252674       -1.54364036772422
H           -0.61433082968103        2.29085189894753        0.63712421587611
