25
 energy: -42.664963466686 gnorm: 0.000684949727 xtb: 6.6.1 (8d0f1dd)
N           -2.59902037237905       -2.73421414665082        0.15681401955375
C           -2.03957758153113       -1.73296318264458        0.04071747321776
C           -1.43664886586710       -0.47243184847253       -0.08884490060423
C           -2.28696345071406        0.63083079992205        0.28253011435939
N           -2.20351715625425        1.87990770819078       -0.13045003584664
C           -1.18773388732696        2.30630981611469       -0.87544024487346
N            0.04101739927301        1.93481980961318       -0.89179378698561
C            0.63993912830388        0.84508572830414       -0.36490654142689
C            1.93058672276362        1.03813925701268        0.08219874551827
C            2.95709434739756        0.11393091822651        0.34997880674228
C            2.96836383990029       -1.22490597729184       -0.04283684544129
C            1.92844875620334       -1.95148695129253       -0.60545223817995
C            0.59576730884744       -1.63027853342960       -0.72839230726852
C           -0.06214119816782       -0.42700680793081       -0.40046692251403
H           -0.05567888318850       -2.43384534745281       -1.05103716804471
H            2.18794994180844       -2.95803431162043       -0.91104453361765
H            3.90381542483431       -1.75155323195164        0.09829020124800
N            4.07193013740816        0.60233309668233        0.95939101262912
H            4.16552168962974        1.59119730752918        1.10682455628866
H            4.90316591966817        0.03999304312012        1.00153236170746
H            2.19903913092856        2.08206889198650        0.19891593900453
H           -1.42052672154036        3.17065291586017       -1.49286402297359
N           -3.35553010702043        0.35724933666294        1.05942796521372
H           -3.61737728092083       -0.59538789937613        1.25023768280522
H           -4.02139282965233        1.09605771319181        1.20767955668204
