30
 energy: -53.270091619419 gnorm: 0.000506245823 xtb: 6.6.1 (8d0f1dd)
N           -4.19669399510440       -1.26470742037586       -1.25684811525120
C           -3.23567153662185       -0.78828816154124       -0.83294719546947
C           -2.07332454851374       -0.21506555532930       -0.30568986028179
C           -0.98228251033390       -1.11264716659552        0.02276430713015
N           -1.33010568058795       -2.44270803480575        0.28808522760431
H           -2.24000925076468       -2.69858963002144       -0.07096351159245
H           -0.61979832293823       -3.11702160551580        0.03989287163400
C            0.31348218909554       -0.72253758465786        0.07906874606012
C            1.42063394817967       -1.61911315943848        0.50412004521914
N            2.44644608026642       -1.86752498074027       -0.23313807558313
C            2.82101943655058       -1.14190763300708       -1.29786589173957
N            2.73890898763624        0.12835450924619       -1.48251491139518
C            1.98771870022881        0.96049125273259       -0.69982440675227
N            2.48059751101411        2.27266373208688       -0.67229502943645
H            1.77046454350509        2.98991427173309       -0.73208313529492
H            3.19672257605756        2.39191533176766       -1.37632251256213
C            0.83664132680191        0.63125595475785       -0.04676039511995
C            0.08101150747956        1.60192231641961        0.77289813349800
N           -1.17897713788496        1.83997873470555        0.65945664526288
C           -2.06785974481719        1.15650228143427       -0.09559721193446
N           -3.08623952013999        1.93040772229101       -0.57481839862284
H           -3.92542517175835        1.47031879743701       -0.88727747978272
H           -3.17750375399345        2.84965651822438       -0.17797321097474
N            0.77539496922180        2.24083833349658        1.73594545420953
H            1.77932191430838        2.24916317119276        1.68311759295917
H            0.30245644899556        2.91926848072932        2.30863965264720
H            3.41188646717425       -1.69061310894670       -2.02404623337338
N            1.33411911830215       -2.14507590329612        1.74140032497900
H            2.08154040242028       -2.72826145800046        2.07794915853620
H            0.44259578422141       -2.16608581908245        2.20501632122815
