28
 energy: -51.427866009469 gnorm: 0.000603114812 xtb: 6.6.1 (8d0f1dd)
N           -0.63599712461587       -3.98106394323653       -0.72726687059783
C           -0.01227411111475       -3.02879987868859       -0.57728940430772
C            0.76834489640171       -1.86342183506760       -0.41139991079008
C            2.14320917837807       -1.99936865899649       -0.66875636021388
C            3.16147393598598       -1.14178090856450       -0.37096485998484
C            3.08418300856543        0.15945752761150        0.18638043741387
N            4.25413478295913        0.70041010359425        0.59687558775205
H            5.11561247712181        0.20170735780361        0.46541113870114
H            4.28679688173591        1.64694741492162        0.93670338883782
C            1.92830872481069        0.95470413827358        0.26720932647476
C            2.13250015813222        2.28257181798301        0.69063039990778
N            2.33384012999796        3.35531055653727        1.05585160062894
C            0.57854261561116        0.63026663972904       -0.07083312735398
C            0.05985305651213       -0.72666557441715        0.01191446959759
N           -1.13158703408645       -0.94877907501232        0.54336045025171
C           -2.27169637788785       -0.33767856706753        0.53077166498233
C           -2.58938256815238        0.74742793447479       -0.37446266595034
C           -3.94076926081612        0.96882774810330       -0.67630976195894
N           -5.05850423422522        1.11421316056726       -0.90510744489133
C           -1.62518467847327        1.64575499172883       -0.78873651270532
C           -0.25893380055647        1.65551283237689       -0.50391066267909
H            0.24150475854853        2.58838109627062       -0.73355596078859
H           -1.99140715323783        2.50381913129975       -1.34024049281518
N           -3.21889009566481       -0.75320836198341        1.39020063517877
H           -4.16598375143373       -0.43045659883560        1.28577398037482
H           -3.03578237458236       -1.56852756817996        1.94983490811445
H            4.16757107336856       -1.49998684966188       -0.54734120925947
H            2.42932013362840       -2.96145883487291       -1.07731654122506
