26
 energy: -47.170593020311 gnorm: 0.000796820502 xtb: 6.6.1 (8d0f1dd)
N           -4.95278137756707       -1.16918992715062        1.23163463957742
C           -3.92738158307081       -0.79465440710207        0.86893562391729
C           -2.70171481125757       -0.28380497631147        0.40739535921952
C           -2.77681818065345        0.96310275059261       -0.39282201693543
N           -1.85582510444684        1.84887307334011       -0.50181741965934
C           -0.60395243663810        1.77820796236124        0.00204477326427
C            0.22315172441483        0.70645893327789        0.17077409479384
C            1.57145515840428        1.01854479185206        0.55860269923822
C            2.70232540676214        0.28370098144369        0.40559881739462
C            3.92832452447017        0.79397012492846        0.86709682700397
N            4.95401171852157        1.16830841182738        1.22864589550444
C            2.77682261165333       -0.96269601570076       -0.39525591402881
N            1.85570087630593       -1.84831692457048       -0.50428194031066
C            0.60423615437961       -1.77793612228270        0.00048414981093
C           -0.22273165830675       -0.70629302423635        0.17050355263306
C           -1.57072775820200       -1.01866250159810        0.55915164368008
H           -1.70158157832285       -2.00215893436605        1.00212676817633
H            0.18175592151107       -2.76791722500615        0.14335225305340
N            3.93038212229008       -1.14908323171997       -1.06860566722237
H            4.03704051124406       -1.99767648943428       -1.59755356714155
H            4.73948643720730       -0.58775205749169       -0.86615146226417
H            1.70265737214699        2.00174145101895        1.00208884501298
H           -0.18139533289765        2.76809737169109        0.14549703411852
N           -3.93094448569213        1.15008441817903       -1.06477586835813
H           -4.73995641958372        0.58863215545373       -0.86188264910791
H           -4.03802718957272        1.99907313070336       -1.59272068307179
