27
 energy: -47.690228491833 gnorm: 0.000824099698 xtb: 6.6.1 (8d0f1dd)
N           -3.65080638375803       -1.38168755645924       -1.90954157764193
C           -3.01974530865721       -0.65727994747621       -1.28136031548987
C           -2.23990014388874        0.21932665178302       -0.49471575124006
C           -2.62337985038615        1.51824065222831       -0.40094881970661
C           -1.95813801153450        2.56013731019353        0.29868619559899
C           -0.64322848658525        2.58615834827224        0.62499346187563
C            0.34647157087192        1.59745728092170        0.32465647924653
C            1.67890807006604        2.06623484883396        0.43984445205083
N            2.73983181458773        2.46708371948044        0.61420112132946
C            0.17744247867191        0.25590933448472        0.05935245826104
C           -1.09660679304039       -0.43370910729314        0.16161359175092
C           -1.27236947011789       -1.64688787388833        0.73691107142490
C           -0.27895760977996       -2.48617197614808        1.32341048687601
C            1.03225940181344       -2.54318963398908        1.01254619247773
C            1.71395899196105       -1.76730595626351        0.00815493999527
C            1.31353649198909       -0.51325730585370       -0.41930142693962
C            2.08782765506703        0.11833463082637       -1.41225747471555
N            2.70126841659724        0.57988352807804       -2.26799358619388
N            2.84841411708604       -2.30779028327347       -0.48870312442353
H            3.18426507254953       -3.19178759018920       -0.15151261705938
H            3.39763106641384       -1.80139580899694       -1.16280683509526
H            1.63736376607109       -3.30693651026432        1.48387882021105
H           -0.65223893849222       -3.20919053349063        2.03706440119667
H           -2.28812267908748       -2.01611884991298        0.80529715060280
H           -0.25243996535303        3.48856887650955        1.07885826662820
H           -2.54711691360424        3.44318608125714        0.50438090466649
H           -3.54750715736241        1.79152999273000       -0.89671212098786
