30
 energy: -49.241782887106 gnorm: 0.000426664413 xtb: 6.6.1 (8d0f1dd)
N           -4.19473659239670       -0.76101633666920        1.16055883948013
C           -3.19675469012537       -0.41072720074753        0.70285346802974
C           -1.98041083093136        0.00351976457318        0.13781324744180
C           -0.85012105776605       -0.69111628274443        0.48723002841368
N           -0.87903080235445       -1.63651462311802        1.46453692271371
H           -1.76755915316008       -1.91630225400329        1.84903865719126
H           -0.11993009499934       -2.29612182750471        1.49850893584244
C            0.47519983273079       -0.43815810146133       -0.09789396832169
C            1.21342879755102       -1.46134282856599       -0.60873429952661
N            2.47265133270130       -1.40117467320135       -1.14170743709998
C            3.39060226734725       -0.58442892522235       -0.76508403578980
C            3.36504029776567        0.41981880011111        0.24158812295759
C            2.25678901980184        1.09563414044909        0.65305713974785
N            2.32528873750447        2.03231690395123        1.63584808742438
H            3.14228553290385        2.09155453340031        2.21848146086510
H            1.48244631329980        2.48273116340207        1.94442065852723
C            0.94129388418193        0.94432465463973        0.00511388822546
C            0.23440194270530        2.02617871398949       -0.37882318323824
C           -1.06888125527146        2.04412802672609       -0.96287529121860
C           -2.05625686845084        1.13130903321273       -0.78625360205404
N           -3.25772360414808        1.25773005400223       -1.45990048244075
H           -3.44499799463910        2.15869218513767       -1.86962673267413
H           -4.05949044500246        0.80679427845866       -1.04714183943798
H           -1.30065656802609        2.90913517020396       -1.57185835617385
H            0.71760502527280        2.99318695025500       -0.29902727614515
H            4.31992286352933        0.69970782643470        0.66892628785938
H            4.35056407404194       -0.75164928210590       -1.24855194488008
N            0.69111923638261       -2.76211775982250       -0.66922070955875
H           -0.28428491103460       -2.81268889832275       -0.93103890547038
H            1.27012686148608       -3.34472204815613       -1.25909000328937
