31
 energy: -54.569986247701 gnorm: 0.000692220863 xtb: 6.6.1 (8d0f1dd)
N           -3.57904107730078       -2.43573999501037       -2.38499626043286
C           -2.94795797169001       -1.75594330195973       -1.70886972010183
C           -2.16375196241978       -0.94100371379835       -0.86225971480438
C           -2.50185900745306        0.37152567366874       -0.74512027747932
C           -1.91540198643265        1.31683617953692        0.15557204648087
C           -2.71872577447046        2.41593056516777        0.51979151827846
N           -3.33928715394666        3.33246906234415        0.82937354554114
C           -0.63787738034058        1.26818540686683        0.67246163546961
N           -0.24053220555471        2.11234092986291        1.65042613549907
H            0.73982112302860        2.20373918671630        1.85362421690478
H           -0.87680726269060        2.81060164157262        2.00076837947320
C            0.37779206690323        0.30442906549998        0.20653431955438
C            1.57106551943219        0.73729834272272       -0.27681976220329
N            1.82518328180489        2.09713694321299       -0.42493827295109
H            1.02181071947573        2.67639834175189       -0.61963408855260
H            2.61614289562779        2.31362657953864       -1.01478498062372
C            2.67188883516136       -0.14879309768119       -0.62535901825107
C            3.59946420575465        0.35729844253391       -1.55810468134260
N            4.34022720493802        0.78769289041098       -2.32472698826209
C            2.95838787063873       -1.35517430047740       -0.04975713903759
C            2.22703759588065       -2.03784181890143        0.94500051232901
C            0.89642537153486       -1.90527352228217        1.21218456029310
N            0.31728698023826       -2.54688019316021        2.25819049116240
H            0.86455932863710       -3.16196601583381        2.83480403478584
H           -0.68378643078998       -2.59786855577531        2.32310809325562
C           -0.01183277925293       -1.09362049282880        0.38045979249419
C           -1.14351682902009       -1.63217875972461       -0.10795152786024
H           -1.31445440250265       -2.69385886270812        0.02603960181367
H            2.77268252286026       -2.78415445987904        1.50810433088361
H            3.89684606778199       -1.81267985360780       -0.33946755615253
H           -3.36414340021457        0.72392590209090       -1.29819352446621
