31
 energy: -54.576310258944 gnorm: 0.000941484631 xtb: 6.6.1 (8d0f1dd)
N           -4.42539115814526       -1.49918639290622       -2.39753333447416
C           -3.76024663066232       -0.92292750575542       -1.65920940484710
C           -2.93681212921257       -0.23361578259199       -0.74492337453284
C           -3.38187133429036        0.96156023119816       -0.25082224970481
C           -2.77278229220980        1.75547452311470        0.74529403752048
C           -1.45909236388451        1.76198052999780        1.11511889705088
N           -1.04106611025708        2.49708899278333        2.17895329790151
H           -1.69407051024274        3.08710179552506        2.66455870001259
H           -0.05975530492504        2.66559257352448        2.31238212429319
C           -0.39618172936385        1.02278817243110        0.40903250611742
C            0.73297464988910        1.65603087273915        0.03822929081850
C            1.88378521813330        1.08977085687148       -0.61139067875299
C            2.67808145588338        2.00061800868962       -1.33015034602204
N            3.34282046686781        2.74709935836620       -1.89955526132915
C            2.33109219424505       -0.21245817727750       -0.51460610337708
N            3.44297464115228       -0.60429457349387       -1.19281530545252
H            3.88202568938808       -1.48048874121360       -0.96753146443619
H            3.98978927298990        0.09237734710781       -1.67107335651663
C            1.73077966398922       -1.21144295366780        0.35092154380879
C            2.59940088541624       -2.21796881532061        0.81372257372336
N            3.30146242275112       -3.04328950721445        1.20015210421877
C            0.41065929858443       -1.30130904818443        0.72465319084896
C           -0.64483333404355       -0.40671479919529        0.22107277351949
C           -1.76133017680585       -0.94196378416103       -0.30968300568332
H           -1.78833212049829       -2.01417778914685       -0.47056284349017
N           -0.00149632074018       -2.25070987572353        1.59283733280228
H           -0.98361451970965       -2.38103764538156        1.76059063425061
H            0.65010142810305       -2.92842429795724        1.95369307194984
H            0.77516837413030        2.73283002813299        0.15844437693576
H           -3.42083519084897        2.46812701252905        1.24035274762308
H           -4.35310395178245        1.29789243768057       -0.59278477947706
