21
 energy: -39.789998269991 gnorm: 0.000456881495 xtb: 6.6.1 (8d0f1dd)
N            5.07784269243084        0.36392430699521        0.13164197568599
C            3.93546412154147        0.25770618661445        0.09470876805591
C            2.53521319349446        0.12824787585874        0.05390058085098
C            1.87961621274392       -0.66812635886257        1.01381794615511
N            0.70614025589184       -1.20264758123142        0.84731408025072
C           -0.31537556171350       -0.91425657456952        0.09641188658632
C           -1.24088500292327       -1.80383113503590       -0.43948862927941
C           -2.52641643425779       -1.41256049042449       -0.80180604936750
N           -3.20999458120986       -0.35886464095107       -0.42158952267811
C           -2.73121206919004        0.70439645540690        0.22746458936243
N           -1.52215377243359        1.24780865523170        0.10047829843382
C           -0.47115465235877        0.55019047916378       -0.23364154306608
N            0.52780441403388        1.02412841983803       -0.91669178473064
C            1.80085470189519        0.75273217940317       -0.96643924605532
H            2.31600067423373        1.14427503532250       -1.83668749386635
N           -3.62542570245151        1.39979339836378        0.94738924272036
H           -4.59221889916216        1.12871340163519        0.90863389047733
H           -3.36263630896704        2.29771094763944        1.31370735536667
H           -3.12223824541005       -2.11727232050823       -1.37428901851921
H           -0.94679050275836       -2.83375276225645       -0.58321148246933
H            2.41094182566972       -0.98739829393392        1.90298289808639
