25
 energy: -43.442527196586 gnorm: 0.000715778605 xtb: 6.6.1 (8d0f1dd)
N           -5.27568122916803       -0.71194719301241        1.10521937430216
C           -4.24399584123249       -0.40177766073313        0.71136236873790
C           -2.97824575088170       -0.00702809960143        0.21260289734706
C           -3.00837210410118        1.13932382541827       -0.68229769338447
C           -1.98037902039414        1.96285208669824       -0.93091692308723
C           -0.66308594845692        1.88685328531503       -0.35630872188898
C           -0.00558657314173        0.79477062835537        0.08681313283979
C            1.31231885226302        0.98318395809337        0.68884173278392
C            2.40167904545436        0.21712926366765        0.48845480470838
C            3.62371013729585        0.55067000413501        1.11241714072051
N            4.64316613351222        0.78731712023629        1.58375010384699
C            2.43680720957413       -0.96728843448634       -0.40529179256654
N            1.47941613837705       -1.80352695071950       -0.56296928891864
C            0.22234075319905       -1.68891649555139       -0.06569523693673
C           -0.52797970310057       -0.57756496221162        0.13846906437952
C           -1.90778118900200       -0.75154064507881        0.56538558611435
H           -2.08684105557732       -1.60868574151348        1.20641277435585
H           -0.26023571458787       -2.65512632890477        0.03553896313590
N            3.59846698468700       -1.17245654155308       -1.07240448811030
H            3.68135949324997       -2.02996483920478       -1.59172986740498
H            4.43918004484942       -0.70416737263554       -0.78033430126459
H            1.41648385208792        1.84910193409728        1.33581951606667
H           -0.12807642691222        2.82913143463370       -0.32522888700272
H           -2.15599144693778        2.82114508554127       -1.56679856263749
H           -3.97501159035818        1.35183420121398       -1.11994786793399
