33
 energy: -52.397015150908 gnorm: 0.000528608206 xtb: 6.6.1 (8d0f1dd)
N           -4.44891624853378       -0.91361958802368        1.10618004801854
C           -3.45604097799840       -0.53812614522539        0.65550973670355
C           -2.24535339192070       -0.09976278872608        0.10084643267723
C           -2.34042465043220        0.95452552785877       -0.90497156179454
N           -3.51610721516247        0.95985741582206       -1.64149540357036
H           -3.73650104382852        1.82675649464993       -2.10609901662100
H           -4.30953383042363        0.50712375291932       -1.21321675392605
C           -1.39522307140415        1.90424215650428       -1.10386836550519
C           -0.13235593946712        2.00784293332130       -0.44024559361278
C            0.61800989986962        0.99969829372615        0.04811098794125
C            1.84881705873962        1.28643009665214        0.80114597367316
N            1.74808461841953        2.31317027933838        1.71382654756781
H            0.81814341998900        2.56771162876689        2.00266300948635
H            2.45858436650113        2.37133344398583        2.42565120305767
C            3.03237983808191        0.67081276100949        0.58660667443447
C            3.31128444364426       -0.35807921155422       -0.37666461972381
N            4.65329060602722       -0.49443959114399       -0.70037568215508
H            5.20998066325744        0.34280949507815       -0.63824891955722
H            4.85480716061844       -1.06350114966371       -1.50705532447445
C            2.41669362015867       -1.26166514692284       -0.85921412844774
C            1.04689438494496       -1.41386681472151       -0.46679719573460
N            0.54437890167800       -2.72275278777573       -0.55415263451694
H            1.08804016136379       -3.31888506238777       -1.16080402925224
H           -0.44290753394732       -2.77812903591348       -0.76242283033124
C            0.23834412163333       -0.41232696282661       -0.02480192129704
C           -1.09001262757631       -0.70580219188987        0.52780265300921
N           -1.10535358582485       -1.59613600728656        1.55764947130039
H           -0.30430688766616       -2.19273844690847        1.67305920149885
H           -1.98951127459504       -1.90512459118218        1.92879838889060
H            2.80299320806409       -2.03232555347021       -1.51733824857757
H            3.89089318711282        1.01826039825354        1.14941380558699
H            0.27492832708754        3.00995298126840       -0.37589572894908
H           -1.63781882071088        2.70850152356646       -1.78799959469810
