27
 energy: -46.110023282792 gnorm: 0.000419607656 xtb: 6.6.1 (8d0f1dd)
N            1.81898023256703        2.75053859910239        1.37151518060736
C            1.63270188026397        1.70828523967816        0.91848889607049
C            1.44275159239930        0.41923840485901        0.39056431320279
C            2.58204103361193       -0.41323885369341        0.30502603242288
C            2.67033104557053       -1.61191484802734       -0.41284318255077
C            1.65647495871431       -2.36897714678907       -0.97308177112274
C            0.28750671466227       -2.23405455785046       -0.85742924918659
C           -0.41624810971683       -1.18972397068492       -0.24542697386631
N           -1.62188130107343       -1.43135013131878        0.21668975439419
C           -2.62837327524365       -0.63934321016120        0.55029333618459
C           -2.88982679447972        0.62236892915241        0.00491979877937
C           -1.88718525436660        1.36125430745634       -0.62443521667721
N           -0.58407160994061        1.19434747495512       -0.44734412029901
C            0.14149978325385        0.16278615554209       -0.09945063109539
N           -2.21554628633603        2.42485686734145       -1.41321873534173
H           -3.14117818403434        2.80916133058427       -1.33856433098306
H           -1.46874262983299        3.06147789751273       -1.63528492352669
H           -3.88737854921912        1.03131905965511        0.07260390125294
N           -3.52423273159555       -1.19488626155755        1.41586890916957
H           -3.41938096241592       -2.17481558006208        1.61516021236967
H           -4.44390720802599       -0.79734401434062        1.48622883951539
H           -0.32418197997511       -3.05522995556346       -1.20656689941283
H            1.98937327671064       -3.25536244098429       -1.50099805780119
H            3.67340613080862       -2.00861005037237       -0.51413647287078
N            3.71748479812605        0.02913256191718        0.91495353345955
H            4.59397261754259       -0.41053881373618        0.69567698033195
H            3.74009353951879        0.96505751047849        1.28463978957679
