30
 energy: -49.250456609766 gnorm: 0.000769667536 xtb: 6.6.1 (8d0f1dd)
N           -4.50103054019613       -0.98856148369239        0.93836618125167
C           -3.46369736253830       -0.64097485344011        0.57336313315049
C           -2.21384420747929       -0.20741755591808        0.11738190457185
C           -1.08877101925226       -0.91123332351226        0.47366481697323
N           -1.17553248035314       -1.96781613632533        1.31668350054545
H           -2.07496355178617       -2.28286386738285        1.64176832282473
H           -0.36553825721778       -2.53912533905220        1.47707423583474
C            0.25660116011137       -0.59259212011081       -0.01698622049632
C            1.04314100611821       -1.58927438887454       -0.49002085973170
C            2.39391704483518       -1.51105552236197       -0.91838257028947
C            3.32514610789194       -0.60509269573841       -0.50238451466369
N            4.64626275378519       -0.77437300955144       -0.88049653905154
H            4.80311831102998       -1.35097518740884       -1.69148911182942
H            5.23405908105276        0.04177488005857       -0.82934079737838
C            3.10730828990111        0.42997595036141        0.46889927832504
C            1.94738395083767        1.05211241818505        0.78132961782312
N            1.93619334797911        2.05223137496730        1.72486371990600
H            2.70597609029238        2.09616499590931        2.37223056730853
H            1.04033278990127        2.34103581388414        2.07929048433520
C            0.65428897586975        0.81130711198934        0.12032694594267
C           -0.12067105020804        1.85730473913116       -0.23641669069796
N           -1.31351052991749        1.85614294825809       -0.89308349697448
C           -2.21081718973744        0.94309210926054       -0.79802466685522
N           -3.30898390240222        1.05460450722596       -1.60067587742524
H           -3.40677728331237        1.92376610856446       -2.09801779317703
H           -4.15022635987922        0.56640180363037       -1.34263405661875
H            0.26868543280934        2.86145494930803       -0.10801777405810
H            4.00230465484320        0.77248582214995        0.97627837406257
H            2.73389321566195       -2.30967489274913       -1.56590328591455
H            0.57757233975816       -2.56055424416443       -0.62566247859443
