27
 energy: -46.093007685639 gnorm: 0.000693674991 xtb: 6.6.1 (8d0f1dd)
N           -3.87908361108086       -1.36378126200569        1.88579540658960
C           -3.05392318674330       -0.87139679765348        1.25145514788026
C           -2.05537511028459       -0.26001373250760        0.47685917635696
C           -2.27380082431801        1.01208640937891        0.00854801891840
C           -1.37572651122769        1.72888338596410       -0.87916069798975
C           -0.04236794871409        1.62382073772069       -0.96299641791699
C            0.80757408897491        0.71176767963006       -0.21668905483306
C            2.03409598950911        1.10268989428348        0.26808636259926
N            2.87819043803847        0.36013732951767        1.04373326777777
C            2.97187655413732       -0.91927301113727        1.00925469692809
N            2.50008751707993       -1.76959028933143        0.08219347584623
C            1.39726936293971       -1.60614510147647       -0.55813494371083
N            1.17828557635860       -2.28496519280316       -1.70221096446523
H            0.24909106190435       -2.34520059256300       -2.07982625419320
H            1.88390861754109       -2.92419194415602       -2.02708978349042
C            0.32599803067808       -0.66693935614528       -0.12771824123808
C           -0.91325431421319       -1.09225482625074        0.14013729463214
H           -1.10380601346405       -2.15944866144471        0.15810195832200
H            3.65017754564211       -1.37080334791335        1.72511578827394
N            2.43785465375681        2.42364601854299        0.20724125890027
H            2.08967575578879        2.98777980414377       -0.54929442040307
H            3.40494379375779        2.56275967271471        0.45125700915953
H            0.45939703116548        2.28815373451606       -1.66224713666416
H           -1.86998796958682        2.47355673956113       -1.49216489201511
N           -3.46033726465068        1.64290024461144        0.25608326127667
H           -3.52727985226776        2.63224276745975        0.09446783587300
H           -4.07439064782517        1.24530247363638        0.94791914408585
