18
 energy: -36.613268766898 gnorm: 0.000554290401 xtb: 6.6.1 (8d0f1dd)
N            1.63127855924884        3.12396145521457        0.89984443633429
C            1.46551034437110        2.02997295555854        0.59918489575012
C            1.25204228508617        0.68217976359772        0.24096305407502
C           -0.00074844616708        0.29577055830867       -0.28874217160025
N           -0.86193219021237        1.01340421280740       -0.93227575347935
C           -2.16720601977550        0.96936764952308       -0.98838392339999
N           -2.96637065241983        0.56394009813555       -0.01769029245510
C           -2.49759681169292       -0.25945554460140        0.90265578907197
N           -1.50710381655866       -1.10136009563172        0.77541495938007
C           -0.46324022334943       -1.11337992475747        0.00036316726477
N            0.13639465631142       -2.17010053099589       -0.48420072472909
C            1.43099550546635       -2.15752032980160       -0.72715554702341
N            2.34271938432598       -1.45281062422118       -0.10977517083856
C            2.23944220107645       -0.28234435065909        0.47512268176880
H            3.09309395145129       -0.00773846555264        1.08651515098756
H            1.79987106651380       -2.92938092981120       -1.39305127133779
H           -3.06672877427712       -0.34096795737287        1.82141441814870
H           -2.62488027139648        1.46212496655797       -1.83654242751947
