28
 energy: -51.416487104315 gnorm: 0.000562032870 xtb: 6.6.1 (8d0f1dd)
N           -5.48879137352721       -0.78517083858853       -0.07218738704207
C           -4.34915874021259       -0.67265259500638        0.01201190840934
C           -2.94933984653798       -0.56519142178974        0.10871717853893
C           -2.26744957511907       -1.44647436825534        0.98157831867362
N           -1.01894961217556       -1.74341373448926        0.93742225710192
C            0.03339796498442       -1.27936618888718        0.26953779952879
C            0.97972315939117       -2.18243753444874       -0.16681752388669
C            2.32499827187828       -1.95053169840862       -0.50239618991762
C            3.07657062126444       -0.81782526919479       -0.17258854831617
C            2.66485853678630        0.38962213077110        0.37952127109540
C            1.31877860277079        0.87056204005525        0.42130481464911
C            1.16421274601396        2.22226901589967        0.79500957079854
N            1.08720153428345        3.29741072770184        1.19568481875366
C            0.15200892827699        0.16773752748009        0.10932630940686
C           -0.96598509756693        0.86008704788776       -0.44028321330605
C           -0.64777138095699        2.05106224207018       -1.13789989184328
N           -0.41836668268416        2.97909406866403       -1.77313833325507
C           -2.30178322093541        0.47634924703681       -0.54973753766549
H           -2.92821930705771        1.13803099625619       -1.13786495656251
N            3.62376110241519        1.24136668761506        0.81036764210212
H            3.37661178841667        2.17646355438259        1.08944278639852
H            4.59346013582713        1.02619901111817        0.66151312906124
H            4.14543530367547       -0.91162376289060       -0.32636403170798
N            2.99004893373632       -2.98335245634010       -1.07292184400510
H            3.97288443021851       -2.91988795399539       -1.26593192496013
H            2.51141220541487       -3.83962244241195       -1.28528130063929
H            0.64731702588651       -3.21190941023804       -0.20915221596421
H           -2.84042908136722       -1.96485236409405        1.74401433185362
