25
 energy: -41.882261908930 gnorm: 0.000223766457 xtb: 6.6.1 (8d0f1dd)
N            3.79802225678300        1.10700241342960       -1.07178610730937
C            2.78498090830405        0.44436423420773       -0.42751454354459
C            3.14593051904034       -0.70447638431252        0.29526343946319
C            2.32247723765950       -1.61562389156367        0.92581947596662
C            0.94576710753065       -1.73883508812342        0.87778457232563
C            0.03121004184902       -0.88612853806173        0.25351683950737
N           -1.12528403643388       -1.39992742035387       -0.13336106045489
C           -2.25042136457917       -0.80834650410911       -0.48851966990846
N           -2.75579662748485        0.34802878968814       -0.06301934632682
C           -1.93464531206904        1.26377422705050        0.45262229934520
N           -0.64015864604284        1.42240295032520        0.26097144451813
C            0.30556760880981        0.53069960916596       -0.01007479635900
C            1.51625221537405        1.01791269303608       -0.49297467479321
H            1.46548412488046        2.02500966425548       -0.89098888864331
N           -2.54192072440261        2.24372996108820        1.17020928845068
H           -2.01628685998457        3.07851773044941        1.36009930815810
H           -3.54351950927881        2.29755343923442        1.11461008742683
N           -3.06434636994362       -1.53813131618598       -1.29358551285543
H           -2.84089136927502       -2.50871790775418       -1.42616441589527
H           -4.02198302296284       -1.24273758321236       -1.36441746072426
H            0.51694370229349       -2.64598806557447        1.28354149913658
H            2.83707585731132       -2.40540200682720        1.46155342307284
H            4.21092027038415       -0.89310916757309        0.36130123730707
H            3.62429282718229        2.04338724426826       -1.39444768445631
H            4.74749838735499        0.88685774415144       -0.82447841260778
