21
 energy: -39.791891116444 gnorm: 0.000922819243 xtb: 6.6.1 (8d0f1dd)
N           -0.75179414219600       -3.33380386428942       -1.52136718451973
C           -0.96523332674358       -2.30823004371804       -1.05265190028249
C           -1.22843618766453       -1.04560120993523       -0.47945393934667
C           -0.11266865825195       -0.30468637255041       -0.02991533937185
N            1.02323766889276       -0.82942324269687        0.33814244797713
C            2.21962614454739       -0.25124503199549        0.37049908460672
N            2.67732510304244        0.66442529459086       -0.49604901912508
C            1.84325101575803        1.46251197040951       -1.12186607659889
N            0.63060666562299        1.80949005137645       -0.77488551291378
C           -0.22885870137976        1.17511454722384       -0.01313199665973
N           -1.11842383811582        1.79441851709785        0.72059306046710
C           -2.34788758753201        1.42939782156900        0.96376144754021
C           -3.08442867105751        0.45431789452596        0.28705899442855
C           -2.55937304800397       -0.61917545976223       -0.41359638832352
H           -3.27559168484229       -1.29763017101226       -0.86289135117981
H           -4.16042672905059        0.50370618437281        0.37739233298004
H           -2.85166507020946        2.03535146430149        1.70871222089032
H            2.25627291048685        2.00657371955868       -1.96428723995832
N            3.11463562117898       -0.76211840330223        1.22892166826101
H            2.87747910365812       -1.58661007143493        1.75260295048447
H            4.07578588675705       -0.48525264893002        1.13039046084434
