29
 energy: -45.520208873897 gnorm: 0.000627961736 xtb: 6.6.1 (8d0f1dd)
N           -4.07153310284294       -0.86990883565742        1.54769829411747
C           -3.15727424395641       -0.38579686023182        1.04379981980153
C           -2.02202406533310        0.18324610059495        0.43584679623630
C           -0.97994881438342       -0.74583103940418        0.02807234837285
N           -1.39950442453309       -2.05845481144389       -0.24292431705521
H           -2.30209734978963       -2.28122101000158        0.15514049577864
H           -0.70715191830294       -2.76026057619914       -0.01701979850494
C            0.31769032343706       -0.40198682846265       -0.15220667663408
C            1.28362926745323       -1.36886338428358       -0.72169965205270
N            0.95910588509923       -1.81915778716383       -1.98284674952940
H           -0.02407893744402       -1.86127968302851       -2.20119158666575
H            1.51719170571851       -2.57074511729942       -2.35593593544617
C            2.41961948167359       -1.74476609533245       -0.09023124260892
C            2.95783207118952       -1.17207012659000        1.10346041917217
C            2.77152884992163        0.09038603030027        1.54671501694078
C            1.98442190325253        1.09998153317275        0.90518389403984
C            0.89687021939264        0.90501022385404        0.13198921095133
C            0.25179857946025        2.03399353328827       -0.56138670534027
N            1.09726020667574        2.86441838428749       -1.23565678035860
H            0.71901444292389        3.52099432167641       -1.89734504747448
H            2.05195068801441        2.57562961817427       -1.35872358995481
C           -1.07993944509314        2.30710157425241       -0.47415518852530
C           -2.05946700168032        1.52568790746295        0.17782870195934
H           -2.97865262950676        2.03989950125860        0.43405959730091
H           -1.42245442535065        3.24384856083496       -0.89661134790116
H            2.28699123396184        2.12310720757269        1.09603070233043
H            3.33452773485535        0.41594666419681        2.41191716036530
H            3.66485873992600       -1.79570016766704        1.63704880560437
H            2.99347919236897       -2.55408820140343       -0.52772028230703
