27
 energy: -46.898527951920 gnorm: 0.000635398499 xtb: 6.6.1 (8d0f1dd)
N           -4.81620365970544       -1.54111817587085        0.17746520769990
C           -3.77431019048385       -1.07804053378443        0.01833282637850
C           -2.51305673171512       -0.49060380436562       -0.14884074151158
C           -1.56431112418128       -1.14862053442576       -0.94644398677037
N           -0.28883854809629       -0.96375901610625       -0.94638552701326
C            0.51819485639633       -0.06819717526934       -0.39065971972355
C            1.75419413657056       -0.56472255562197        0.05143797874868
C            1.78583139371369       -1.96229493130948        0.23848370913089
N            1.85909646136776       -3.09401247548949        0.42945230362646
C            2.98311064005944        0.11991988572333        0.27145770416907
N            3.99175864775997       -0.59790539987666        0.82662781811537
H            3.87394918009671       -1.58530826216380        0.98231284584437
H            4.92230141548926       -0.21972779918826        0.83870093825535
C            3.25584611509400        1.43106265674859       -0.11320564247789
C            2.36994871659992        2.39531230552596       -0.57563532494744
C            0.99555355146263        2.38045113443161       -0.62117783418200
C            0.10666408209237        1.32400336770454       -0.32911543594068
C           -1.20030753565430        1.64107364039254        0.04515635231900
C           -2.31447782973452        0.83721520131522        0.32097024112695
N           -3.35026847802164        1.41786308445343        0.97444793942498
H           -4.21215933580152        0.91236938199056        1.09127389427416
H           -3.32902314210429        2.39819724523152        1.19129471449624
H           -1.35589565397884        2.69406882385468        0.25668436768198
H            0.51953346122787        3.32190389556461       -0.86740627017008
H            2.83032908376110        3.33536334434708       -0.85613627836680
H            4.29008367654463        1.73711660989071       -0.01843687240295
H           -1.90762871315923       -1.94878774210258       -1.59490277618581
