18
 energy: -31.805100536833 gnorm: 0.000379693340 xtb: 6.6.1 (8d0f1dd)
C           -2.32157673820260       -0.90580078832623        0.60543902812799
N           -2.92217283234625        0.02003328360204       -0.16077815333552
C           -2.28491285540642        0.91572133874159       -0.84560650492820
N           -1.06757498567733        1.38860626573989       -0.60705977625499
C           -0.04209330665040        0.73844819793084       -0.17070367296592
C            1.04777417738521        1.38512945090660        0.49775786709942
C            2.32549720991675        0.90972197792721        0.58429170946353
N            2.92110450172106       -0.02116644267227       -0.17969244278260
C            2.27941206683339       -0.92134537533041       -0.85441916045205
N            1.06366561133830       -1.39261760694622       -0.60482133701922
C            0.04103690686216       -0.73956907959476       -0.16609252354669
C           -1.04443481488020       -1.38179689898054        0.51371850517818
H           -0.78304829937023       -2.28699400356975        1.04585046418448
H            2.84737710109987       -1.47385778652925       -1.59534144613318
H            3.02216891583553        1.42868388383842        1.23403343981351
H            0.78984335690868        2.29382792519147        1.02559107445507
H           -2.85770864800502        1.46333921904110       -1.58644370650661
H           -3.01398580366249       -1.42044342656990        1.26312456310282
