25
 energy: -42.636443160796 gnorm: 0.000354965622 xtb: 6.6.1 (8d0f1dd)
N            4.39326825579511        0.58564252124512       -0.29261295755457
C            3.32306168022640        0.21502107032697       -0.09179946333262
C            2.00488054663559       -0.20434853510199        0.15662291712750
C            0.97234540944577        0.53174206188683       -0.38157405693182
N            1.18954737291098        1.51865924963081       -1.27791131090521
H            2.12429391149501        1.71840251535776       -1.59445808332250
H            0.44143568593349        2.14287083901375       -1.52365938838764
C           -0.42724586006630        0.28304579903276        0.01154371664422
C           -1.23598789862107        1.28198730893929        0.47991660701756
N           -0.71880135142259        2.56257491977176        0.68524725029955
H           -1.28312257720432        3.13955148547676        1.29093733994447
H            0.26210908136834        2.60197426268387        0.92254275666476
C           -2.62194660057336        1.09867813885135        0.80662436173849
C           -3.44537848562109        0.15518319081541        0.28753198848108
N           -3.17264529556725       -0.61431619764420       -0.78774845552590
C           -2.05354504419022       -1.11660172325843       -1.08856898027480
C           -0.84400359329147       -1.09030842946005       -0.23861147556519
C           -0.17684076909441       -2.19025447731719        0.15314388722869
N            0.91141743641628       -2.24649939086249        0.97377589133617
C            1.83892732842776       -1.37085415485015        1.00119616788309
H            2.65864827465754       -1.58189405042260        1.68184938136682
H           -0.56839767933221       -3.16859180841673       -0.09838004912389
H           -1.96749989693070       -1.57507543172693       -2.06963524427493
H           -4.47791011752170        0.10374477774133        0.60623053869390
H           -3.05205863987637        1.83372551468415        1.47499073637182
