30
 energy: -50.042851229563 gnorm: 0.000737641269 xtb: 6.6.1 (8d0f1dd)
N           -4.96534961543936       -1.47072301998489       -0.96318351036676
C           -4.01676985108231       -0.99611163104704       -0.52356594745776
C           -2.85089799739348       -0.41772556789994        0.02718344559847
C           -3.05473547419300        0.37055384149158        1.23567072159629
C           -2.28603430722956        1.39621493386942        1.62410374553237
C           -1.14822899938134        1.91793324169806        0.90606202408860
C           -0.29244690917240        1.22973101296915        0.12772909243933
C            0.72716891732044        1.96569876238632       -0.64292054526511
N            0.27511377557857        3.10091346261440       -1.25904023913602
H           -0.71835667121073        3.21335376142048       -1.36702653992853
H            0.85628640625456        3.52611839542790       -1.96220191419302
C            2.03968417181693        1.63344029400152       -0.69520389579595
C            2.68075113130313        0.51896559056892       -0.07037071737002
N            4.02771422872171        0.64240244519245        0.11269901456716
H            4.44345066017140        1.55610171911806        0.09081127074268
H            4.51561479914266       -0.08215457054113        0.61214321959477
C            2.06640537611411       -0.68526438062695        0.22412529963808
C            2.86189219767850       -1.69055356826477        0.79403668119910
N            3.51392301547546       -2.50600289349274        1.28235475438239
C            0.70185289584487       -1.06226188997172       -0.09793405904180
N            0.51121013781735       -2.40940827773558       -0.35568495582361
H           -0.41142438794718       -2.77835008169977       -0.19185793973311
H            1.26092195191202       -3.02155031964532       -0.07358840311827
C           -0.36158625463066       -0.20960078643210       -0.13125433584549
C           -1.66646916284688       -0.68639214729839       -0.56673850419617
H           -1.67272218002256       -1.32219605974386       -1.44818758157955
H            2.70506158297513        2.31450149318050       -1.21255176099711
H           -0.96827970062404        2.97755466512229        1.04186796252414
H           -2.57623463912450        1.95415684566419        2.50533497285711
H           -3.94268429412842        0.12217186346028        1.80254177698810
