24
 energy: -43.729890414081 gnorm: 0.000383069209 xtb: 6.6.1 (8d0f1dd)
N            3.23524610897600        2.32957878285595       -1.29192256320149
C            2.21869070839168        1.96090433445256       -0.90525807592231
C            0.97057304856136        1.50503117216218       -0.43374660490140
C           -0.08148087578102        2.37852675243742       -0.48789834958897
N           -1.28952391705728        2.26528156953073        0.06604007172634
C           -1.91142054709842        1.15875538323875        0.33710204989039
N           -3.04999637191626        1.25061451640345        1.04585937971333
H           -3.37199680415151        2.16641755769023        1.30963107634060
H           -3.66414683604512        0.45979542829892        1.14184635919718
C           -1.53251985273922       -0.17498713749865       -0.13360692840647
C           -2.61368061660349       -1.04472121610789       -0.37193916991897
N           -3.53744451369056       -1.70723396520868       -0.54390768008315
C           -0.24942862244724       -0.66101822312341       -0.23256322771332
C           -0.05137070068582       -1.98824063661972       -0.77034714248298
C            0.94240196038236       -2.85401969951741       -0.45527668609812
N            1.80683964388143       -2.79166576211201        0.57555970893379
C            2.26396623610816       -1.71044132598947        1.09765437488564
C            2.06842378343567       -0.37444577783897        0.64676552153291
C            0.94763977813491        0.12373251035726        0.04457450894835
H            2.85794684322059        0.32959703510525        0.87954492270656
H            2.94353025597603       -1.85482817596152        1.93253226441561
H            0.99186853327928       -3.79876033981522       -0.98494537956102
H           -0.79571931770557       -2.31165990619587       -1.48828815429764
H            0.09421734275505        3.35563900185833       -0.92641285908957
