25
 energy: -41.849343263184 gnorm: 0.000589983171 xtb: 6.6.1 (8d0f1dd)
N           -3.74165965403759        0.58174344223360        0.90998350735315
C           -2.61306761611222        0.06507861223672        0.34167636371225
N           -2.20075138468236        0.71212629805476       -0.79657649713960
C           -0.98610761786501        0.89674300286225       -1.11364612987581
C            0.17152620773080        0.59889389588614       -0.25610250785971
C            1.15579154615692        1.48506318326822        0.05349044475780
C            2.30940504086892        1.14080553657081        0.84168337162884
C            2.85473159162642       -0.09266473972760        0.94720997834149
N            2.58092083564527       -1.18477819172041        0.19812211422979
C            1.44806099262139       -1.48505710828712       -0.31695339632286
N            1.38978392918265       -2.44308060002648       -1.27433048566165
H            0.50937687492168       -2.88065535902365       -1.48009077380194
H            2.23818001280607       -2.93426921060740       -1.50009660732908
C            0.15985554252028       -0.82938585935611        0.02927757223596
C           -0.92064381938172       -1.53301268830603        0.43792473339360
N           -2.14040393588482       -1.04665786868361        0.80022845398438
H           -0.82803521361114       -2.60068193127935        0.60697257156475
H            3.71563064935570       -0.23580777210285        1.58976122609725
H            2.80015142738752        1.95946957010481        1.35245866200181
N            1.05643289846108        2.80978970082416       -0.35928712410938
H            0.12686057401451        3.13514333918599       -0.57504402388001
H            1.59822180619762        3.46578612648958        0.18132625054421
H           -0.80494114222169        1.25953323952909       -2.12566179254583
H           -4.29572280890495        1.19543910138099        0.33669601215807
H           -4.23441869659892       -0.03388090340721        1.53535348632388
