24
 energy: -42.955442969092 gnorm: 0.000707262354 xtb: 6.6.1 (8d0f1dd)
N           -4.76398978177646        0.23514774079215        0.88936576481811
C           -3.64965663619113        0.06465247176314        0.65470282364423
C           -2.29082122569931       -0.10605620755158        0.34841971482041
C           -1.65205898832870       -1.25264537391305        0.83016174748185
C           -0.39943248218148       -1.73910994678546        0.51999527949118
C            0.59954517419001       -1.04411040048879       -0.17488606819696
N            1.56171044784477       -1.63448532610022       -0.82687524885184
C            2.76637786655495       -1.21806217481408       -1.15943414409403
C            3.51107320648260       -0.26420115774916       -0.49935170124359
C            2.90800395225750        0.64804509785945        0.39903750265531
N            1.64658140139471        1.02954253325707        0.33737083172141
C            0.58678677558036        0.44411965209734       -0.15034388362901
N           -0.42339206588984        1.16115766670579       -0.58187280702008
C           -1.70381172698127        0.87177679381806       -0.51898281963150
N           -2.52225857741989        1.64042011285704       -1.26737041403757
H           -3.51648193171542        1.60884692570732       -1.11798730997967
H           -2.11926535187254        2.40951236999549       -1.77359921104552
N            3.66924068432206        1.28342510164613        1.32300885942636
H            3.25849093373988        2.04905369642578        1.82894775875409
H            4.66981502465743        1.21964152288120        1.27225927656781
H            4.58218832683223       -0.23281586427379       -0.63303153014416
H            3.23360891618607       -1.81303962443494       -1.93637985905665
H           -0.15700789360562       -2.74620921771613        0.82992981657249
H           -2.27742908779255       -1.89521331477813        1.43967683377157
