26
 energy: -47.153588937457 gnorm: 0.000650397821 xtb: 6.6.1 (8d0f1dd)
N            5.01873700365350       -0.34142193107836       -1.26645412578161
C            3.99415224929995       -0.34758221660456       -0.74871434583596
C            2.74235337900269       -0.36819697244756       -0.10091490731078
C            1.77966953449914        0.51110479514227       -0.46790450026897
C            0.45331029617768        0.59447226004688        0.11302131301833
C           -0.13688490784207        1.81394748271072        0.32653703281544
N           -1.35333209706690        2.04751592329109        0.91044148958603
C           -2.39312389354270        1.31304587202356        0.81834543886238
C           -2.58197684974161        0.10386416212591        0.06052414220894
C           -3.89667388575601       -0.18660169397774       -0.34982885563269
N           -4.96297751911116       -0.44002772819953       -0.69577572301798
C           -1.58611055208138       -0.80229451078912       -0.23546301403311
N           -1.83195789082390       -1.87316955420324       -1.01402044929151
H           -1.12791064791978       -2.57632201166338       -1.15234217312845
H           -2.74674251271017       -2.00571095891841       -1.41484215081961
C           -0.22273569819801       -0.69445968151586        0.31722636454195
C            0.35564309948156       -1.79017479181568        0.84902095315298
N            1.58569391341671       -1.88516008445353        1.44898426247875
C            2.62087945483625       -1.27779845104220        1.05046330777055
H            3.53490284823393       -1.46183828034623        1.60675767594020
H           -0.21578913986076       -2.70532275903716        0.95392075758342
H           -3.27358751290905        1.70175889225620        1.32189529553069
N            0.52122582340732        2.99011644664685        0.04987136494606
H            0.07738569150022        3.80570471178331        0.44025454227552
H            1.52631005860452        2.99816260273825        0.05874046829151
H            2.01209613274475        1.22119185731161       -1.25736860127730
