20
 energy: -31.225077547914 gnorm: 0.000206382284 xtb: 6.6.1 (8d0f1dd)
C            2.43216342191152        1.11751961390095        0.29277913375707
C            2.83013928752510        0.06995102738401       -0.62940634655740
N            2.26751411645757       -1.05574680704060       -0.82543189319129
C            1.10927890115264       -1.46544794278952       -0.23788604228380
C            0.02598174232124       -0.73138347517188        0.10667523964656
C           -1.16849457409916       -1.40288443049226        0.62979225354380
C           -2.43205776483409       -1.11751674100199        0.29380174585195
C           -2.83042567160613       -0.06993748244681       -0.62820299788233
N           -2.26788492908644        1.05576364707521       -0.82445136107212
C           -1.10940077844863        1.46545791111235       -0.23739166097698
C           -0.02595588756176        0.73138941267982        0.10669657939378
C            1.16874362988195        1.40288380100352        0.62931139410595
H            0.97774296792742        2.22167078419262        1.31504038268344
H           -1.03969955414093        2.54661577862134       -0.17819872895695
H           -3.75753754645420       -0.22975122691939       -1.17119461032763
H           -3.23648178257380       -1.71900536913955        0.69891857591485
H           -0.97720117090227       -2.22168037706597        1.31542828208982
H            1.03960166471549       -2.54660664649298       -0.17867907595675
H            3.75701912495678        0.22977272433779       -1.17279310189604
H            3.23675982915773        1.71900405555316        0.69755959111401
