29
 energy: -51.134225684705 gnorm: 0.000430390785 xtb: 6.6.1 (8d0f1dd)
N           -3.61388334474157        0.15817205628527        1.41108546028054
C           -2.72295582343836       -0.36416182369703        0.90947566156373
C           -1.59723603479477       -1.05868640832383        0.40305077956904
C           -0.56674299129494       -0.26919420291593       -0.09689186950368
C            0.77458663908292       -0.75544081231576       -0.32992520268916
C            1.91367416898524       -0.03145870478568       -0.05522338522645
C            3.15054497633262       -0.67051665468255       -0.28079558812960
N            4.18288100602107       -1.14942425212187       -0.44696452458197
C            2.03110160423723        1.29609953071595        0.52716494098875
C            1.11193032059453        2.29943025788403        0.38783402602529
C           -0.14774950244677        2.24416363233902       -0.26225501306117
C           -0.89341252491945        1.08474675628817       -0.47513869099147
C           -2.13447551492060        1.23630504549035       -1.12042544679342
N           -3.10299100922165        1.39692103825608       -1.72104211262330
N           -0.68245504038278        3.42954872057010       -0.63939101918161
H           -1.62261153178432        3.45997174944512       -0.99720741535639
H           -0.23729122744335        4.29060306134676       -0.37986100114011
H            1.40285824170978        3.27566210335104        0.75585601758700
N            3.18572119297364        1.54230759478298        1.19808557341410
H            3.93746089341685        0.87500404619293        1.16589942901946
H            3.39697333322937        2.47865974054147        1.49415723713719
C            0.92868548916471       -2.02795174138524       -0.99987116708505
C            0.21418587685228       -3.16693236843308       -0.85430108235469
C           -0.87841720931269       -3.41084802827614        0.01663549877957
C           -1.66226149436306       -2.46507381531177        0.59582384305624
H           -2.49645623257045       -2.79933938593107        1.20069891378133
H           -1.13452102200872       -4.44789098691586        0.18292467644358
H            0.54742303336278       -4.02059802229615       -1.43089992656701
H            1.76545768377205       -2.05903654000326       -1.68831036115989
