28
 energy: -51.418656778936 gnorm: 0.000865216350 xtb: 6.6.1 (8d0f1dd)
N           -2.20320132050791       -2.59030215488285       -1.84809623682738
C           -1.35218686635335       -2.14700509534507       -1.21720069656873
C           -0.25329378919897       -1.58921828418819       -0.52928774820941
C            0.84195237769280       -2.39666208319032       -0.35196818344505
N            1.95744045468217       -2.15121048204057        0.32484035954222
C            2.46495402937629       -0.96805724174484        0.54812805390821
N            3.53059137510066       -0.92536314065373        1.36906434652009
H            4.08752547283871       -0.09128728134286        1.44785201346476
H            3.88940068327841       -1.79770241798081        1.71890832640901
C            2.05848904615875        0.27623737883280       -0.08029864688759
C            3.09577849752098        1.21416659814068       -0.22645698269609
N            3.98907289314951        1.93442370001058       -0.31399063211012
C            0.76183064265360        0.66839440854107       -0.40250193791804
C            0.58515156710853        1.92975159640169       -1.04672874197888
C           -0.49044744090301        2.76865255433885       -1.02437100428302
C           -1.67843152406800        2.67318897790487       -0.28983680532761
C           -2.17410326914044        1.57149777456893        0.37797011357801
N           -3.29873711583389        1.70782529690906        1.12127962060451
H           -3.77233828649246        0.89643259676542        1.48192410900703
H           -3.79715316086621        2.58017203094824        1.10400756233240
C           -1.63208762577378        0.23845180807824        0.25549889557505
C           -2.50543664106599       -0.78229987615000        0.70515739476758
N           -3.22973462595976       -1.53925739935791        1.17715405785217
C           -0.38750854138078       -0.18116423383187       -0.17152284100417
H           -2.28707511904788        3.56706088637989       -0.24702520114900
H           -0.37521296685598        3.68862662014089       -1.58348365922807
H            1.45300665555452        2.27422652155865       -1.59551354459054
H            0.77479325993332       -3.41687327211058       -0.71579962353726
