26
 energy: -47.186012544841 gnorm: 0.000713984810 xtb: 6.6.1 (8d0f1dd)
N            1.99172385434494        2.17144494079256        2.10760121209355
C            1.86027422911069        1.30073307983375        1.37056235085439
C            1.70528275678595        0.18407693445237        0.51871591994767
C            2.81535048397413       -0.64579734229516        0.39109456400692
C            2.97459326720873       -1.72747009007022       -0.46718927407003
C            1.94683710131328       -2.27627128779332       -1.22221118527404
N            0.66975372602379       -2.19629465670154       -0.95860367103646
C           -0.02881664666911       -1.39871747080568       -0.20374978920135
N           -1.10981319352144       -1.85424813618872        0.39488648486140
C           -2.24223976265361       -1.23088769977226        0.62128746678645
C           -2.68643577113763       -0.04369036544939       -0.01610658141797
C           -1.88883173009969        0.96521697822647       -0.51074189782298
N           -2.47404772696372        2.02619368664647       -1.12037320679632
H           -1.92950043863556        2.85077826137197       -1.31216107589676
H           -3.47500010962047        2.11275794755208       -1.11142154399039
C           -0.45527810282332        1.04794995806988       -0.32486246406705
C            0.11068639078434        2.32500500628161       -0.51460456738087
N            0.52378439858064        3.37375945688284       -0.74170330542931
C            0.39892363939141        0.00234699987914       -0.02825356505410
H           -3.75607098135197        0.11842496957182       -0.04577428331022
N           -3.09245423004540       -1.85845634041693        1.46241905132396
H           -2.82298445209395       -2.75523104524252        1.82678293617583
H           -4.04103488115990       -1.54876115240924        1.56624673710900
H            2.18804664199147       -2.92145820028711       -2.05987020361697
H            3.97215349066567       -2.11906179200482       -0.60270364375376
H            3.69298556450139       -0.32359132832473        0.93934026335929
