30
 energy: -58.902408026716 gnorm: 0.000525819009 xtb: 6.6.1 (8d0f1dd)
N            1.65370227713176        3.13772072770969        1.46123071444731
C            1.61395519545273        2.09586504909180        0.97439914996074
C            1.63298195117471        0.77827524495208        0.48391782116520
C            2.88137030511582        0.08225142103037        0.62316147160738
N            3.27701273856551       -0.96651446319656       -0.07143596906808
C            2.47661196478682       -1.72449788577196       -0.81981059149503
N            1.20591378655322       -2.00101938745219       -0.59600360825943
C            0.31172640521746       -1.24956721038171       -0.00423501349178
N           -0.69433830384718       -1.83165192993868        0.60113015544139
C           -1.92748329945972       -1.43518450442142        0.78807799121912
N           -2.62897469071794       -2.09195164455125        1.73536259316903
H           -2.19452134867126       -2.87986142714980        2.18335825541017
H           -3.62686076409273       -1.98029478456446        1.79202255806213
C           -2.60408664139641       -0.45569273247645       -0.00241468259472
C           -4.00195091469970       -0.54720657857056       -0.05565564328620
N           -5.14958320356671       -0.63987420252006       -0.08796651906936
C           -1.98557382726345        0.63029603177019       -0.65007704636051
N           -2.76453368799729        1.44092994368703       -1.40162263143041
H           -3.76027898223878        1.29597905640835       -1.41910376058483
H           -2.39429151679079        2.31058465632995       -1.74769713694151
C           -0.62145356492898        1.00874754315032       -0.47919929236903
C           -0.29459070419309        2.30275717384422       -0.93391356445532
N           -0.07230700381105        3.33909199337646       -1.38005784644203
C            0.44012016305053        0.22281074369467       -0.00361274823446
N            3.07609624489702       -2.40341999205804       -1.81633071304901
H            4.07811265132184       -2.37859240763068       -1.87744864337936
H            2.56203443971187       -3.13140470510144       -2.27940592595989
N            3.80718708776508        0.60652294290285        1.44920144614542
H            3.65778362608193        1.50551824114469        1.87570664295649
H            4.72975923135212        0.20778836199362        1.43463294548638
