26
 energy: -52.773789329141 gnorm: 0.000575918558 xtb: 6.6.1 (8d0f1dd)
N           -5.72861968745016       -0.92291289662884        0.19044608010627
C           -4.58834656579467       -0.80768164565611        0.16209054421318
C           -3.18184043251082       -0.67973203122210        0.12380288378813
C           -2.41601234649849       -1.58880001627527        0.87919818666286
N           -1.16923190406726       -1.86279202312444        0.66776519380181
C           -0.23686313586328       -1.27788556810460       -0.03411562348245
N            0.63965930816302       -1.99174723205424       -0.70164217517389
C            1.90685836596063       -1.79502472557484       -0.88736149745865
C            2.73226744217991       -0.91234297342018       -0.17493661146092
C            4.12038855621219       -1.16049247693752       -0.21097215628668
N            5.25239783741373       -1.35244908975201       -0.22073150484958
C            2.30346929795032        0.27050802804142        0.48226251670875
N            3.22270256175579        0.99132190352664        1.14313134590520
H            2.99395503371550        1.90495125543345        1.50236681763040
H            4.18383642384880        0.68805658567772        1.15831661244627
C            0.99421526876596        0.83631406390834        0.34550985750603
C            0.86966359771912        2.18481975710799        0.75478535644453
N            0.81030514089142        3.25963769446010        1.15342943841388
C           -0.17108850388549        0.19148298989096       -0.06647109408822
C           -1.32409398700117        0.86417192030378       -0.55200802966957
C           -1.09513911274579        2.10844191447658       -1.19148890302659
N           -0.91761879412189        3.09186066638215       -1.75289202581471
C           -2.63941942739101        0.40635874241348       -0.56966342223777
H           -3.34988873620978        1.05092127494176       -1.07534803496469
H            2.37530556664666       -2.46404011128225       -1.60069048279864
H           -2.89959961378076       -2.17308425863172        1.65352443618489
