25
 energy: -42.656938673732 gnorm: 0.000753814389 xtb: 6.6.1 (8d0f1dd)
N           -1.26976041815626       -3.13347090152907        0.76282560049559
C           -1.19823857970121       -2.01934595775507        0.47407738827653
C           -1.17871339375314       -0.65854122263058        0.12720669350849
C           -2.45702438103765       -0.06994797179936        0.02999486663489
N           -2.79606080162521        1.09659532475115       -0.53215715310459
C           -1.98167480550709        2.09796715807916       -0.73618573365239
C           -0.66659102494212        2.29565182640790       -0.33619372642236
C            0.30934751985205        1.37103902350624        0.05302429126303
C            1.51860937048110        1.92368465283743        0.54273776568108
C            2.76065221555725        1.36065220244761        0.72594106163028
N            3.27505764008696        0.22503506313409        0.29125183686265
C            2.56379444315178       -0.75905716363241       -0.24598704797325
N            3.31951965857911       -1.74160084644164       -0.78569588671846
H            2.91083368445109       -2.61275506843754       -1.07155074720012
H            4.31728231856774       -1.67000327351634       -0.68682845994449
C            1.16569076158637       -0.95431511299914       -0.23690573696174
C            0.12034587699744       -0.06610035850465       -0.03113679862563
H            0.86871022784934       -1.97371512071977       -0.45676753788020
H            3.49990851299780        1.97629175373265        1.23197679129383
H            1.44322973033234        2.96547441508694        0.83231594518742
H           -0.31931499798319        3.31945045265779       -0.40798440399992
H           -2.46760200328888        2.93698853047829       -1.22841203007222
N           -3.52977954375366       -0.77409841214957        0.45182206195598
H           -4.43940118059178       -0.38767324411060        0.27005642795557
H           -3.43591109805250       -1.71811240621188        0.78537824511637
