24
 energy: -42.144454834817 gnorm: 0.000553132998 xtb: 6.6.1 (8d0f1dd)
N           -0.09442136639787       -2.84402614277975       -0.18656298054326
C            0.45126059418974       -1.57831465349158       -0.41770086895862
N            1.66948992241595       -1.62187364787887       -1.03627123979607
C            2.54820147962030       -0.68693488996506       -0.94874076054531
N            2.61755532562616        0.33564742628349       -0.08378130231239
C            1.61864379775913        0.97576448435538        0.41233196591321
C            0.25000379513820        0.91282555417404       -0.16301547742172
C           -0.45653452962378        1.99752426994394       -0.55274476297301
N           -1.67995516028140        2.00786596956976       -1.15249252516641
C           -2.55781556886462        1.08878629539392       -0.96927127818016
N           -2.61474709060196        0.14559567970745       -0.00668563381656
C           -1.60295403254234       -0.45613357176153        0.50747457568395
N           -1.72146794155594       -1.09559377233311        1.68911322196350
H           -2.61846211818178       -1.10766276065580        2.14485607930291
H           -1.03070789532409       -1.78011591795028        1.94465585160736
C           -0.24665472096718       -0.45054140949262       -0.10756507700606
H           -3.46703139490536        1.16856403521359       -1.55634257175741
H            0.00858480555550        2.97712803231950       -0.51315752364534
N            1.77895268008069        1.71467226728778        1.52659364375939
H            1.07795718693911        2.38581583412412        1.78554618653592
H            2.69050805941456        1.76521117408114        1.94938353327722
H            3.44181644317978       -0.81814825689721       -1.54989781010370
H           -1.09063809406004       -2.91158912270975       -0.34363171882492
H            0.42201462618736       -3.55390887823822       -0.68773198859223
