26
 energy: -47.176686725327 gnorm: 0.000520492908 xtb: 6.6.1 (8d0f1dd)
N            3.98879548663903        2.67704308739705        1.30589612968831
C            3.35693492796572        1.80462736457299        0.90802899711172
C            2.56860343366334        0.74286529639576        0.41861131175819
C            3.07077129486677       -0.53195794739883        0.50337394154426
N            2.61613897591806       -1.59820902430537       -0.16198841834701
C            1.41258209148755       -1.83237604323579       -0.54199942373722
C            0.19852130941450       -1.14494043004770       -0.01985884033561
C           -0.82208107702035       -1.85575526757098        0.49363920119290
N           -1.97544134695998       -1.39774605326358        1.05918824116736
C           -2.59452549520506       -0.33345190332620        0.70444841756665
C           -2.25792280706734        0.55124378491587       -0.44516228865637
C           -3.35588966424696        1.18156331453259       -1.06628425973611
N           -4.28010369819810        1.66865294597538       -1.54383130948773
C           -1.00379925363123        0.84882005320818       -0.84762344210200
C            0.21713681528502        0.29350344874611       -0.29236318129339
C            1.30285298861349        1.09945324470415       -0.15458035358927
H            1.17821161258157        2.14930686808670       -0.39308340313947
H           -0.88862793063837        1.59833752456147       -1.62487478908420
N           -3.68127017837616        0.04151457955949        1.41541710159746
H           -3.98263887027088       -0.56351295463107        2.15950959024882
H           -4.30785513798456        0.74703634000917        1.06955794086221
H           -0.71069914668439       -2.92883196745768        0.60911012838521
N            1.19748951855568       -2.77000782329406       -1.48362727155497
H            0.26934207126156       -3.10557759134487       -1.66646065980414
H            1.98726916815028       -3.25425532787709       -1.87549856192857
H            4.01145208647896       -0.70103909681731        1.01323501237594
