27
 energy: -50.934719895202 gnorm: 0.000556702554 xtb: 6.6.1 (8d0f1dd)
N            5.02901184752452        1.09245134626978        0.56091940371957
C            3.89258696418397        0.94704604421220        0.46004175366206
C            2.50148577062649        0.75554640873462        0.33681339686022
C            1.71311987726070        1.74503005485528        0.93657118555931
C            0.36025127478684        1.96091657739478        0.85142908166405
C           -0.58811258978595        1.12518731496418        0.24287566511090
N           -1.70384445040597        1.64503866745218       -0.21023408444614
C           -2.84576213196596        1.06515743344359       -0.55692502043996
N           -3.41666668521238        0.00805368375790        0.01475550648750
C           -2.65588004982263       -0.86993018838586        0.66521267414729
N           -1.37012127216422       -1.11868511533846        0.46540948705766
C           -0.39246146466131       -0.32693086666013        0.09358828141277
C            0.78329360746636       -0.91217307463911       -0.41819391410306
C            0.62329501325996       -2.21229774340823       -0.93851175188911
N            0.51955251623806       -3.26470567504750       -1.38977229466337
C            2.09578914062543       -0.39433267233464       -0.39006755219039
N            3.05775167359193       -1.09808955982686       -1.03040894212370
H            4.02507873600624       -0.84800375438548       -0.90892910383094
H            2.83162385747049       -1.98746914486227       -1.44396773311063
N           -3.28987293868135       -1.69884685678773        1.51845547281158
H           -2.80113803846729       -2.51656209837000        1.83855890561579
H           -4.29453306301379       -1.69095959420610        1.51618486157456
N           -3.58106434815491        1.71500723873746       -1.48049327374505
H           -3.28372381975217        2.62420350476003       -1.78634098873432
H           -4.53265110791950        1.42430825936504       -1.61606055318485
H           -0.02253140157863        2.90160474696386        1.22240583563646
H            2.28229727604349        2.50642156584463        1.45841687313599
