30
 energy: -60.464100197661 gnorm: 0.000933610827 xtb: 6.6.1 (8d0f1dd)
N           -5.77732980534433        0.00188554661923       -0.70284618078769
C           -4.65562265083864       -0.06605762452828       -0.47511430987163
C           -3.26922190785855       -0.14743440041236       -0.19872984800234
C           -2.62142127032724       -1.30927638994555       -0.59162109006065
C           -1.31333004906916       -1.69795298624433       -0.30535422284831
C           -0.98092728969944       -3.04594491292002       -0.58716426312386
N           -0.71511919130309       -4.13583866343594       -0.82311427594945
C           -0.23860453984666       -0.92833550056969        0.19420372984186
N            0.78485675554206       -1.58654314438879        0.69705192741794
C            2.06348217060167       -1.34553676006268        0.75479932191659
N            2.78710715611816       -2.06973987318390        1.61983322678611
H            2.32400912092027       -2.78339859034681        2.15674852202661
H            3.79247027122573       -2.04900710721098        1.58736180577562
C            2.74936185907735       -0.43677779108343       -0.12737715157651
C            4.10293773987930       -0.70017980846051       -0.39069384756736
N            5.21228891019398       -0.92514435718632       -0.59433790051291
C            2.17953022170797        0.73322319126310       -0.63104679150483
N            2.91827068052898        1.52003075290597       -1.43294397255408
H            2.58123205419507        2.42646533017203       -1.71394817730761
H            3.86953169163596        1.26557211255077       -1.64434169483838
C            0.87226475315119        1.23123977935063       -0.25242264642311
C            0.69447760719291        2.61336199945621       -0.49974285497630
N            0.59972573318038        3.71924070309800       -0.79402240178787
C           -0.23583969677180        0.52411925852589        0.18396853172550
C           -1.38788897632267        1.23909992282346        0.68573633909596
C           -1.09276155830053        2.38307132876229        1.46677751052937
N           -0.86199378719703        3.26013788115503        2.16874775173501
C           -2.71440267036644        0.93353588132509        0.51726731422290
H           -3.42438583221476        1.64021766391744        0.93207925609595
H           -3.23122685089065       -2.05329954224815       -1.09196630537770
