28
 energy: -45.820012957363 gnorm: 0.000753699399 xtb: 6.6.1 (8d0f1dd)
N           -0.45847509397354       -3.54667335388443        1.74803276003726
C           -0.75873251852227       -2.55471535412555        1.24544495618625
C           -1.13259049210847       -1.34084756865534        0.64366691781096
C           -2.49270726811102       -1.12737209272042        0.51661464192911
C           -3.16883203320301       -0.07109101098632       -0.07110711444913
C           -2.63865892263070        1.16078139761586       -0.45393011244344
C           -1.32733343421071        1.61156284673833       -0.22738605007923
C           -0.18217744600130        0.93251585892816        0.14508226564979
N            0.82518853817054        1.70910126547081        0.56872424382894
C            2.11498211113171        1.59608116153975        0.45645424474243
C            2.83595961069809        0.65870524520372       -0.32758420947009
C            2.36839697217648       -0.60106142641575       -0.62560058409008
N            3.18019607861989       -1.45513238971970       -1.31757688563191
H            2.95108286301352       -2.43344288647169       -1.32993425008442
H            4.14700421741971       -1.21063114926481       -1.44343420976970
C            1.11401460541324       -1.14388063634647       -0.21936382653085
C           -0.04052229451603       -0.51683043886125        0.17248796476768
H            1.06362810500572       -2.22572652800769       -0.27335293714272
H            3.85962688865893        0.90247315654704       -0.57747645732286
N            2.83377262674350        2.57992704315220        1.07489685187520
H            3.81643600068363        2.44486065794435        1.23137727166511
H            2.33076229675518        3.15513190875231        1.72889326277449
H           -1.17360390333125        2.67688369003904       -0.35561936617029
N           -3.49200423829710        2.05197738324769       -1.04210522854984
H           -3.20531991262498        3.01048519867195       -1.13435695919935
H           -4.47984676203536        1.86805147195096       -1.01774166822360
H           -4.23697041648851       -0.19283753787098       -0.19972100276138
H           -3.11573935863537       -1.93677191077274        0.88246707135149
