27
 energy: -50.927450289607 gnorm: 0.000582597119 xtb: 6.6.1 (8d0f1dd)
N           -1.45242884326814       -3.69716091401413        1.66084455463728
C           -0.72410236100324       -2.91498091425804        1.23716596588132
C            0.15896906989080       -1.95280113248063        0.71211012538555
C           -0.44657456244317       -0.74243605438436        0.20926159648400
C           -1.73492287335632       -0.76716489098535       -0.24965188398963
C           -2.53425704809513        0.34479917965255       -0.68135462714045
N           -2.47911752538000        1.58095115494964       -0.24709722748291
C           -1.52439696516093        1.99811007126482        0.60660873441188
N           -0.27086413816649        1.63044707919698        0.64355761074974
C            0.31048017914686        0.51389134102603        0.22993461339549
C            1.65108473977597        0.60546557864861       -0.15585262804077
C            2.15563686557735        1.90114801392221       -0.36889501672259
N            2.61884122151431        2.93376199734965       -0.57424335936397
C            2.55380410997242       -0.47822331611306       -0.41149598291236
N            2.51593531018863       -1.68736399589562        0.10616542271749
C            1.50409359789640       -2.26332211894523        0.72886460203526
H            1.78828324934678       -3.18520916152047        1.22870032255284
N            3.63154901153714       -0.22423391504285       -1.18371363878187
H            3.84356565104229        0.71778071169494       -1.46587971747057
H            4.34044657803325       -0.93487635250924       -1.24409479553026
N           -1.88577403287135        3.00906970083815        1.41921624003790
H           -1.16682292324599        3.49214118824952        1.92875732656454
H           -2.77076720713707        3.45558846410061        1.25782047989671
N           -3.52284587586021        0.07615013999814       -1.55554761496581
H           -3.71964962648358       -0.86548229560020       -1.84176116984057
H           -4.15013382416639        0.81812308699273       -1.81169102977288
H           -2.19932251508950       -1.74042549384291       -0.35471192563430
