27
 energy: -50.929869717314 gnorm: 0.000924442569 xtb: 6.6.1 (8d0f1dd)
N            5.28574374451432        0.69156299014872       -0.42448377468470
C            4.14025445243515        0.59025124809266       -0.38914150699436
C            2.74348373937584        0.45322951696152       -0.32365822257029
C            1.97561905801016        1.22438400916078       -1.20231030732042
N            0.71827364333259        1.52205710698582       -1.09382529668418
C           -0.22670186639725        1.02660949293783       -0.32619145684554
N           -1.13989107740439        1.84443078982993        0.13626235178594
C           -2.38188336846292        1.56027166010731        0.48075564535359
N           -3.16485364226223        0.60601072791986       -0.02162471068031
C           -2.73363975376957       -0.56461776817130       -0.45159098194703
N           -3.66593387662502       -1.33419890632450       -1.04764725292185
H           -4.60970162673671       -0.99060958693283       -1.08455993440786
H           -3.47365492608245       -2.29952394288502       -1.25432432718330
C           -1.43788964237739       -1.13571207134017       -0.23245038325620
C           -1.35689778164539       -2.53428172592064       -0.29129757282757
N           -1.32175484357959       -3.68476671866666       -0.33718231074296
C           -0.24814774245014       -0.41513392791352       -0.01394197986401
C            0.89301487068511       -1.02340874915122        0.49866374740130
C            2.21489725767474       -0.56512296564479        0.52269250558947
N            3.09356918739880       -1.23454054132656        1.30834354319252
H            4.07834009623194       -1.04429891366261        1.22650261673463
H            2.80638775336295       -2.07983965951840        1.76993801508669
H            0.73244621284616       -1.98474173150477        0.97538720883732
N           -2.98216016159735        2.42387598982319        1.32333281905484
H           -2.49707429134750        3.27099559740377        1.56119291903624
H           -3.97995020371795        2.37252839092725        1.42696532681847
H            2.48838732330043        1.71914426875736       -2.02131912015539
