24
 energy: -38.126012852440 gnorm: 0.000587364408 xtb: 6.6.1 (8d0f1dd)
N           -0.98622631813280       -2.48091456357237        0.59822008598653
C           -1.09374138523708       -1.08933745853605        0.50199068005988
C           -2.37018416262452       -0.53143402819370        0.90244009357180
C           -2.95185682689284        0.56845103802659        0.39957795098457
C           -2.43298472080775        1.44173372395223       -0.62538558520413
C           -1.14592548206509        1.67628799200744       -0.90885514961545
C           -0.00896394289017        1.08526790734784       -0.20569396210448
C            1.07603923940255        1.83587728645462        0.12051384886822
N            2.15976198805350        1.47589277371672        0.85621903850283
C            2.62134187305248        0.27913650204013        0.91196231774334
N            2.35091171551343       -0.75729754927330        0.09158787157096
C            1.20743363966125       -0.96014207012541       -0.45712533863575
N            1.11159616327986       -1.74205673024536       -1.55307687929065
H            0.21441752334168       -2.07259598523957       -1.85951530966836
H            1.94979405209773       -2.11083750082487       -1.96811427199039
C           -0.06682044435791       -0.35199738048455        0.02708708862402
H            3.45532140349423        0.10867386802240        1.58440419145199
H            1.05507580512125        2.89661742122878       -0.10669876069999
H           -0.90225223161561        2.38895612015087       -1.68872280017031
H           -3.18742571665370        1.98815285925957       -1.17862154704730
H           -3.94742291372401        0.81594870118895        0.74641060521726
H           -2.92646356534250       -1.12506837810708        1.61884590370749
H           -1.60947980799057       -2.89535496078017        1.27568769211623
H           -0.03974400348320       -2.82283578141396        0.68904833122198
