26
 energy: -47.187222229543 gnorm: 0.000548301033 xtb: 6.6.1 (8d0f1dd)
N           -4.47057209311117       -0.64691653924956        2.08345103947445
C           -3.58255160339852       -0.25715573132564        1.46876284010900
C           -2.48885436329180        0.19830547980120        0.70493030754226
C           -2.32540639780732        1.54990046206185        0.53407605709720
N           -1.54878651365483        2.14230944220148       -0.38012487207912
C           -0.44510641169069        1.71764815375195       -0.87457676653665
N            0.02512720393567        2.24786262281784       -2.02086614005181
H           -0.49178025861104        2.99667840738920       -2.45086719371758
H            0.98875144909420        2.11767477359230       -2.27458847003706
C            0.36839048973190        0.62359305357014       -0.26882316615828
C            1.64767162521076        0.80986349200310        0.11858730970955
C            2.48872139461469       -0.19845771832096        0.70497018281610
C            3.58242119278195        0.25675135011065        1.46896783632461
N            4.47014606075362        0.64629634724222        2.08406188869959
C            2.32526994350190       -1.55000766568114        0.53370456944826
N            1.54867794737960       -2.14214394874304       -0.38069296588043
C            0.44503678535313       -1.71730692564884       -0.87508005501404
N           -0.02511382909833       -2.24713032597618       -2.02158211701523
H            0.49183508852638       -2.99578601941496       -2.45181054901748
H           -0.98871823547519       -2.11686375851161       -2.27532643680299
C           -0.36849616997567       -0.62344089059161       -0.26903418126434
C           -1.64779420382315       -0.80983486765950        0.11825072308382
H           -2.05915594079390       -1.81142618753976        0.07483451014901
H            2.98416030627980       -2.23394884150934        1.05476997882190
H            2.05903250038913        1.81146471713966        0.07551992953133
H           -2.98440564532179        2.23365579008981        1.05521651546823
