24
 energy: -47.761357892859 gnorm: 0.000756201294 xtb: 6.6.1 (8d0f1dd)
N            2.26812029294151        3.39529994244414        1.00035748780021
C            1.95048452047278        2.32236869254673        0.74614042170212
C            1.54847266064310        1.00138382389236        0.46388378818947
C            2.37585927025577       -0.05508287116555        0.85175029776918
N            2.38305463288469       -1.29068584616850        0.42649572286848
C            1.45679277796749       -1.98016073912492       -0.22312378138607
N            1.89338617598639       -3.11475880698013       -0.79915851669004
H            2.85726324307282       -3.37369118661216       -0.67404327628177
H            1.23945918291527       -3.78142641013806       -1.17337277663536
C            0.05565953127133       -1.71002868404127       -0.22176756163397
C           -0.82681548384978       -2.78360611294195       -0.43193589391844
N           -1.51416107734329       -3.68331567948174       -0.62907244808382
C           -0.46877659753270       -0.43378680481680       -0.00608125377155
N           -1.69458758414917       -0.23673788329017        0.41432150803585
C           -2.49006074716383        0.81101963334528        0.30750446850321
N           -2.52001509339162        1.68677213606390       -0.71583161394155
C           -1.42821185605351        1.90281095727472       -1.40345574599588
N           -0.19275429186612        1.68208898059224       -1.02577014955801
C            0.32764379482007        0.80380927461287       -0.22045086367395
H           -1.53924405088786        2.46036779775808       -2.32626321247818
N           -3.46989165201839        0.92831734097881        1.21767821233901
H           -3.61330539726615        0.18993120834422        1.88416170429597
H           -4.19696920981172        1.59988575268562        1.04467514559815
H            3.21907729820491        0.18464716631511        1.49292300764920
