27
 energy: -41.277959411358 gnorm: 0.000791563746 xtb: 6.6.1 (8d0f1dd)
N           -4.04807227774925        0.46455761615021        0.73415880472830
C           -2.78465872958864        0.06672053419938        0.32100348111629
C           -2.16885644845362       -0.98915936852036        0.90465787514738
C           -0.86842006866973       -1.49925301487274        0.57834667250636
C            0.17500878254536       -0.80325598423274        0.09287655560681
C            1.43708700244837       -1.48616240796173       -0.30150990455042
N            2.60487434657869       -1.22487386380991        0.15045074857250
C            2.93130918827045       -0.14346478397639        0.89446214975978
C            2.38874755061421        1.09362001827544        0.81664657145511
C            1.21282335642090        1.46489575356697        0.08034505800780
C            0.19192213767711        0.61407721326339       -0.23468232174290
C           -0.94259079955889        1.06246827338874       -1.04655336167652
C           -2.23247216419777        0.82655595520391       -0.78919626195726
H           -2.97450114759797        1.24842352019112       -1.45950285966591
H           -0.68924358037902        1.63251938861576       -1.93553861572349
N            1.12351457164768        2.81049767007868       -0.29028157098627
H            0.18316439237245        3.16586800163762       -0.37206289842766
H            1.72662821278042        3.42255915616344        0.23827222773695
H            2.91147072257167        1.90349309711546        1.31129365373751
H            3.82191873138350       -0.29727587388850        1.49228834765367
N            1.29579951913030       -2.50001660638433       -1.19570417205168
H            0.40358520934637       -2.65114434339384       -1.62998050002766
H            2.12234095504308       -2.85665603353848       -1.64410815629781
H           -0.71544797464968       -2.55128883793620        0.78959052211633
H           -2.73058712399834       -1.55831807123184        1.63610904618246
H           -4.60796762880254        0.95392382929849        0.05437222438677
H           -4.56177272598492       -0.20266058330187        1.28825792419401
