25
 energy: -42.656841894041 gnorm: 0.000504311235 xtb: 6.6.1 (8d0f1dd)
N            4.54913538002657        0.06678146704767        0.03478368028349
C            3.39646764363885        0.03479726471188        0.02667478790770
C            1.99444996935946       -0.00856849585556        0.01965709830607
C            1.40989120386846       -1.26091615298801        0.30229030851513
N            2.24767752694707       -2.27123027661359        0.64033245680588
H            3.24162008137151       -2.12223815955449        0.66719118959296
H            1.88996861385936       -3.19838330631379        0.77993085978514
C            0.05474685960668       -1.60161928441057        0.15083239204188
C           -1.05308581976804       -0.79685268452730       -0.01910620753897
C           -2.23496181682567       -1.35463355153955       -0.58091564603700
C           -3.49867282910919       -0.81744348817118       -0.69009771585101
N           -4.07769107576836        0.16243084380899        0.00012538594445
C           -3.38077016735847        0.89105680738522        0.84620532407393
N           -2.11618394858663        1.18989375372278        0.82537730793080
C           -1.07070208806791        0.64394929261905        0.23112707305164
C           -0.01706427610685        1.49469079839561       -0.10027459856935
C            1.33195997496827        1.21796164950533       -0.28083832516580
N            2.12228143418339        2.24233986908261       -0.68954356549860
H            3.12324493893837        2.14373363084344       -0.68258356549356
H            1.73020558368119        3.16138383292464       -0.78822652642392
H           -0.29199131755394        2.54171374848261       -0.14596779350594
H           -3.96132756494367        1.41042403529050        1.60437320117233
H           -4.19532598134778       -1.33543034775223       -1.34319182352126
H           -2.08057157277236       -2.29956826783089       -1.08902423988759
H           -0.13700228004045       -2.66931598326328        0.13642234308149
