28
 energy: -49.829481750619 gnorm: 0.000653688549 xtb: 6.6.1 (8d0f1dd)
N           -3.82893952135880       -1.81429335943860       -1.09466126799827
C           -2.94830114252188       -1.16599181796733       -0.72894120103952
C           -1.88201307532176       -0.38267954003994       -0.27259971887241
C           -0.66276729811697       -1.07337244856123        0.09191959837417
N           -0.78920290651056       -2.42437006819382        0.42508594013733
H            0.01758918146363       -2.99078092605440        0.20398529355085
H           -1.65147696491967       -2.84331259366061        0.10409739878443
C            0.55886087072175       -0.48270848980871        0.10030923613091
C            1.80472006386534       -1.18401621429326        0.52061332057995
N            2.83855200295642       -1.30008503481850       -0.23364158156033
C            3.07765287355130       -0.56680567484895       -1.33807644229501
N            2.81020295160653        0.67138765205251       -1.55406770124764
C            1.94598955332380        1.38736609589826       -0.78511694788908
C            0.87178025126596        0.92265272565057       -0.10125462765701
C           -0.03414499360272        1.82411835619365        0.64389799215609
N           -1.31249907662300        1.85578368736753        0.51101041585321
C           -2.08431839456383        0.98902864550437       -0.17961427088779
N           -3.20524028745243        1.55449555921768       -0.70791576536325
H           -3.42461750629952        2.49238008625431       -0.42190473809368
H           -3.95843361976610        0.95542494558199       -1.00131987159626
N            0.54046602361836        2.64281754959825        1.54630798442267
H           -0.03718049735792        3.28107990379390        2.06670127011584
H            1.53777856060970        2.76180304242436        1.54907001104577
H            2.10316347631537        2.45909514604846       -0.85472358664029
H            3.72826174073928       -1.05251250278023       -2.05792661129076
N            1.82723933070353       -1.66769763711311        1.77938072749973
H            0.95959665079095       -1.81663209396735        2.26447092345318
H            2.66000606378353       -2.12606348903973        2.10906623382648
