20
 energy: -36.033625576365 gnorm: 0.000724918794 xtb: 6.6.1 (8d0f1dd)
N            3.98958668718459        1.37322978163187       -1.29073563006504
C            3.09976928475729        0.80459276929251       -0.84286258402279
C            1.98935425630224        0.11983944798103       -0.30136119164127
C            2.02652000837225       -1.25178744149060       -0.24854092065861
N            1.24253685352939       -1.99662649101966        0.54292732169773
C            0.02983543700644       -1.82447280712765        0.85119835746612
C           -0.86518876314139       -0.84278562804918        0.19646305225768
C           -2.04573290283748       -1.15205056613025       -0.40063611295213
N           -2.85876938658387       -0.30707281170862       -1.07623253680719
C           -2.93083064739135        0.95455639570607       -0.82232328944557
N           -2.51792364569102        1.54072899141724        0.31332340716197
C           -1.46842881075747        1.27169130779364        0.96715473560049
C           -0.34211478317759        0.49346856539484        0.39523404929471
C            0.92293772129249        0.92691418362218        0.22866372440895
H            1.14889291598405        1.96505125570256        0.43467495544159
H           -1.41553937289731        1.58383604885904        2.00641953166571
H           -3.56083190027981        1.55967572207139       -1.46078645827470
H           -2.34494093691610       -2.19131840381480       -0.46667140784441
H           -0.36689250509613       -2.42172241947537        1.66591417604812
H            2.85288641094033       -1.78980170805629       -0.69408849263101
