27
 energy: -46.106968278937 gnorm: 0.000251702894 xtb: 6.6.1 (8d0f1dd)
N            4.75298644220016        0.37269755967476       -0.14370945044385
C            3.60579757870703        0.26000836455596       -0.08928027478411
C            2.21177398323207        0.12651712838043       -0.02271552580969
C            1.68940027617872       -1.12393052242389       -0.45828175628003
C            0.39966384337317       -1.59829401471049       -0.25644011586254
C           -0.70650101165904       -0.91068850840944        0.23795783582317
N           -1.63441768471247       -1.57137365393362        0.88686265398461
C           -2.89284326651443       -1.30458010245222        1.16020243008353
C           -3.73504411422245       -0.46340225722420        0.46832766154726
C           -3.22147181472105        0.49803873396702       -0.43236497950993
N           -2.00753664293400        0.99983013390766       -0.39383352636260
C           -0.86676441882182        0.55287079560933        0.09492373007899
C            0.12880204042293        1.46163642249493        0.41262053405043
C            1.50842775281059        1.25405897849721        0.46693143373632
N            2.25946370381835        2.28332893668314        0.94765047308958
H            1.81625732422797        3.16443447545871        1.13667764696212
H            3.25803493756537        2.27146586694559        0.82516583600299
H           -0.20239941246550        2.48246180682356        0.56037392317339
N           -4.05435113601539        1.05479078554584       -1.35601453188687
H           -5.04589654314829        0.92935658395908       -1.25773617881783
H           -3.72601819012279        1.86967375296339       -1.84498476225275
H           -4.80432389010032       -0.54295279296332        0.59638422889796
H           -3.30248515001219       -1.92976764124108        1.94820016129078
H            0.25243221443385       -2.66046710519475       -0.40930398479544
N            2.57474871086269       -1.97639686292380       -1.04931984506989
H            2.30329687367770       -2.93360359737404       -1.18850212766351
H            3.55900304303995       -1.76972771321515       -1.01275210798145
