29
 energy: -55.164226536539 gnorm: 0.000709050529 xtb: 6.6.1 (8d0f1dd)
N           -0.58760188357661       -3.95441644898282       -1.06183743021820
C           -0.16789019793608       -2.92241553215253       -0.78687661553054
C            0.36535309208107       -1.65203118953033       -0.46982064765293
C            1.73040944260011       -1.48604289962680       -0.68997822797595
C            2.56440272094004       -0.45722687527977       -0.29503488937635
C            3.93894677109098       -0.64905629500648       -0.54392469355079
N            5.06249192295034       -0.78675965164997       -0.74472695146044
C            2.20972879579429        0.76787857315367        0.36067700497271
N            3.23158648389444        1.49225472442499        0.87074525707640
H            4.18134818053974        1.19593732694764        0.72010480470260
H            3.05855768422466        2.40509360002582        1.25730001538157
C            0.91672143726631        1.29381955202838        0.44314014110077
C            0.82274494205556        2.60354927612397        0.95110961292598
N            0.76666764414260        3.67324194486372        1.37233715178977
C           -0.33767432647398        0.71970634931766        0.04865845033294
C           -1.35908765068224        1.56313366103626       -0.33055032017263
C           -2.71944596956612        1.24472673373915       -0.62618095778629
N           -3.44154280875561        0.25294298320642       -0.14240385502838
C           -2.90163407710406       -0.71344386710999        0.60987756723692
N           -1.69836576596231       -1.22522706095733        0.48987131426890
C           -0.57318093622691       -0.72352435875130        0.03444106438649
N           -3.73175342709186       -1.31518892296569        1.48009379142228
H           -3.43605053423149       -2.17459579598454        1.90939753763897
H           -4.71022966193772       -1.09267462044743        1.43262762028380
N           -3.39468206533610        2.11568544098503       -1.39923639023844
H           -2.96810474961677        2.96448738155732       -1.72293663855666
H           -4.37378876252846        1.95448498452931       -1.55676793084278
H           -1.09507877261983        2.60281952442482       -0.48322295380570
H            2.22465143000483       -2.32750604020643       -1.16442639191776
