24
 energy: -43.741498830248 gnorm: 0.000970606540 xtb: 6.6.1 (8d0f1dd)
N           -5.13427083798945        0.11627768700653       -0.17788182660009
C           -3.98876883216089        0.18210502389530       -0.14410299590727
C           -2.57777687570061        0.27116849151010       -0.10878482877346
C           -2.03018014160004        1.44414212898281       -0.68909617079061
C           -0.75452122312782        1.91300851394839       -0.61460606618251
C            0.34425495841458        1.27505652214995        0.02262509850650
N            1.26957291907112        1.98392696843383        0.58280685944188
C            2.49333821827108        1.70859628753443        1.00840687872789
C            3.34692537775825        0.78807701036653        0.45983905943527
C            2.84966097659266       -0.22920264285855       -0.40495829906604
N            1.62088023541788       -0.68768560016587       -0.34827965889855
C            0.48364675758702       -0.19196424574248        0.06881029803699
C           -0.54348143133775       -1.05187302893249        0.50758116839651
C           -0.12867811511768       -2.32356836811590        0.95993565274230
N            0.21666994287288       -3.34989941183185        1.34010214045792
C           -1.91531246085133       -0.79538218245430        0.47946666489135
H           -2.54351526151075       -1.58225198174160        0.88295789772295
N            3.68493344651529       -0.85957435299002       -1.25596325424930
H            3.35057022515263       -1.67468270206936       -1.74129689032883
H            4.67444581341173       -0.69928451503464       -1.20112055837566
H            4.40611741651461        0.83635535052914        0.65820562884020
H            2.85267909890223        2.39890514527452        1.76274778308482
H           -0.55219595338501        2.90561633034953       -0.99376287891938
H           -2.75594221040302        2.08487136634949       -1.17653261019154
