26
 energy: -41.585528563113 gnorm: 0.000372944476 xtb: 6.6.1 (8d0f1dd)
N           -3.94572293804606       -1.30972084862035       -0.65883402668565
C           -2.88510069996280       -0.52042376688858       -0.27267841118723
C           -1.61960284567110       -1.05270385067904       -0.42172465053583
C           -0.34292046684018       -0.54964145561300       -0.08337164264656
C            0.67939938828484       -1.48043820821113        0.08035496800245
C            2.04241516822940       -1.28006802864269        0.38306993959375
N            2.80057314378666       -0.21694095639665        0.16822993191977
C            2.28485037414684        0.89961910779640       -0.36998580176699
N            1.09062963862581        1.41138077373265       -0.26144287998360
C           -0.07755428901247        0.87092510803740        0.10206026230224
C           -0.99656150309793        1.77989023701819        0.61877551422480
C           -2.37137202923186        1.67059481881667        0.79975511966250
C           -3.22792445962336        0.69145001422364        0.37037226901963
H           -4.28723752657403        0.85207539443560        0.52743997315746
H           -2.83844205648616        2.52420383018119        1.27779472859911
H           -0.55667733677673        2.73500385868780        0.87708206437748
N            3.19085715057570        1.64976988804034       -1.05379438758231
H            2.93677154517673        2.59646748681371       -1.27429182951778
H            4.16119269295428        1.42524498792243       -0.92211656952268
N            2.71998332704587       -2.33854966275168        0.90558330744535
H            2.30999480581854       -3.25468767924895        0.90076151395214
H            3.71841904937067       -2.25302520390872        0.97658089196596
H            0.36784353066725       -2.51958545165630        0.08385529253078
H           -1.60364137330292       -2.06701746761916       -0.81087952514383
H           -3.75801385041028       -2.07472046793519       -1.28439357194328
H           -4.84321255004665       -0.86808908483430       -0.76214948583691
