33
 energy: -58.015747311788 gnorm: 0.000652443089 xtb: 6.6.1 (8d0f1dd)
N           -5.40389251699842       -0.22288863939450        0.86489063273941
C           -4.37258792066171       -0.01806023002284        0.39774911215406
C           -3.09649624432783        0.19978094405367       -0.15337395093263
C           -3.06288512812306        0.83787939932919       -1.44534753514788
C           -2.05972242646765        1.58588986403753       -1.94439817595010
C           -0.82188685722412        1.87895961324198       -1.28383808925907
C           -0.17948549268546        1.09013090650223       -0.39901545622808
C            1.01922920177790        1.57838969029685        0.29656658332490
N            0.90209500214429        2.78096096207365        0.89630866392160
H            0.04922340109988        3.30329804428038        0.80327366037859
H            1.67807311175763        3.18431361907172        1.39532848078954
C            2.20091026789687        0.87478073126689        0.33680203025483
C            3.30710494911157        1.49214570009099        0.94810873228272
N            4.20478057590220        2.00467336755649        1.45384489721160
C            2.45052548302944       -0.41453732676945       -0.27842461171999
N            3.72959648708345       -0.63255209055963       -0.68691960577181
H            4.45182522776673        0.01258708450320       -0.41622286997464
H            4.00186105179540       -1.55931878933564       -0.96954384109510
C            1.50231873261607       -1.40576645549418       -0.42783194121982
C            1.93633627167993       -2.63246070866737       -0.95604459133988
N            2.28968356861142       -3.64271507318656       -1.38194933820517
C            0.11418302536879       -1.35986590625075        0.00356851671499
N           -0.42143952665515       -2.57885226559470        0.41905928215172
H            0.10626608615318       -3.38645111474298        0.11872759926464
H           -1.41340752449846       -2.68739137404969        0.26324101614866
C           -0.64134623650846       -0.23368195659884        0.01964795921858
C           -2.00975677358503       -0.23826438600114        0.56595774571114
N           -2.13440694635574       -0.68174646747232        1.84250934421375
H           -1.38699647030164       -1.22086239438846        2.24456004900811
H           -3.05244669873545       -0.75431971964049        2.25109415729121
H           -0.35454548073253        2.81649347461485       -1.56261653657883
H           -2.22047134809755        2.09077938790149       -2.88724197332829
H           -3.98922398703420        0.77990324535039       -2.00319787793204
