32
 energy: -53.493000810679 gnorm: 0.000929065895 xtb: 6.6.1 (8d0f1dd)
N           -4.16921134899830       -1.65832012072650        2.00990867653609
C           -3.42091441252931       -1.08706997736434        1.34567849565872
C           -2.51304538556027       -0.37898351020703        0.54355574349049
C           -2.81741199819389        0.93127773428598        0.21890822290110
C           -2.05724122948821        1.75032087167157       -0.67250025633075
C           -0.73879425370335        1.66229371017010       -0.98133719631626
N           -0.18079519548955        2.56179999087521       -1.84441912460066
H           -0.77684985702548        3.14642096834696       -2.40416164910708
H            0.76189502008402        2.41414596840417       -2.15783556681767
C            0.21186051335025        0.69980434061362       -0.39853638161313
C            1.40922342247874        1.14544354564065        0.03127111135280
C            2.51275191107582        0.37902567717927        0.54396011471723
C            3.42027960700361        1.08728445312576        1.34628293914338
N            4.16859804624500        1.65895927683176        2.01006523578839
C            2.81719401428649       -0.93136388750748        0.21990060739849
C            2.05721726830415       -1.75077420018518       -0.67133209088148
C            0.73884460066613       -1.66285263908806       -0.98050305709893
N            0.18102801292469       -2.56267851047803       -1.84336746601608
H            0.77719658576489       -3.14750693218820       -2.40277252639509
H           -0.76159683948167       -2.41513149649607       -2.15704062932787
C           -0.21193260703469       -0.70012691826691       -0.39829139765563
C           -1.40939367146232       -1.14559560185320        0.03141511611266
H           -1.56295714671669       -2.21858300494363        0.06018961129990
H            2.60727918252028       -2.57860720804003       -1.10460554044291
N            4.00969532754066       -1.46100675385022        0.63253595576815
H            4.53006917883082       -0.96119889551063        1.33464867348527
H            4.13615953197833       -2.45672376277677        0.58967749671890
H            1.56276944589546        2.21843968735452        0.05969071054370
H           -2.60721818304035        2.57795340121711       -1.10625634349071
N           -4.01002639369716        1.46107169295918        0.63101529774791
H           -4.13647194146963        2.45677532430694        0.58774561862308
H           -4.53057127625797        0.96154422149912        1.33320011720774
