31
 energy: -53.785751756621 gnorm: 0.000608855116 xtb: 6.6.1 (8d0f1dd)
N           -3.72944415015449       -2.83646162332176       -1.24209725934480
C           -3.09292515023783       -1.96263228717108       -0.84500003046056
C           -2.34424205883719       -0.89080788104458       -0.33858627184488
C           -0.99504345923628       -1.16783806691793        0.05092101571326
C            0.01313029678086       -0.27493083882622        0.20895757553238
C            1.32749258325050       -0.73830323850182        0.66689652690735
N            1.31425656554715       -1.59326164298996        1.72012476916484
H            2.17199090168164       -2.02059018320669        2.02890415829860
H            0.44207375432990       -1.99621975797468        2.01492184265894
C            2.51821869399694       -0.34437903207938        0.10388843696571
C            3.68730574800029       -0.94682640817556        0.59721597666651
N            4.64376677578924       -1.43889713075368        1.01007962549235
C            2.71234092583291        0.60565068765247       -0.98648926349630
C            1.91407735490116        1.67832695389932       -1.23273676436415
C            0.71087422931252        2.01580282738879       -0.54947617142925
C           -0.13517355206916        1.17108870335090        0.07362865631620
C           -1.32342738409238        1.68204706206019        0.79790216440730
N           -2.54451376797095        1.35421747540404        0.56881967080093
C           -2.98136423500870        0.33863301846097       -0.20774507062931
N           -4.20381364667198        0.55136802599053       -0.76882442918957
H           -4.72749153310571        1.34490352866045       -0.44284912563890
H           -4.71304573455312       -0.24159635342889       -1.12235640481941
N           -1.07117421035245        2.56322455610115        1.78571563707030
H           -0.15267555505385        2.95608671331944        1.88540152552311
H           -1.83796291001445        2.94773646799630        2.31031998242112
H            0.42248229026686        3.06005634840074       -0.60149209541961
H            2.24676902560895        2.37892263064179       -1.98779344749384
N            3.83082783810663        0.38637427036438       -1.75662424868361
H            4.55633035407679       -0.20052508881698       -1.37790798220097
H            4.14026433822522        1.14213800342768       -2.34439181099664
H           -0.75476031045086       -2.22290066780932        0.12532270547598
