25
 energy: -48.253755856321 gnorm: 0.000783511891 xtb: 6.6.1 (8d0f1dd)
N            4.61312334781060        2.27304324745362       -0.54015619245167
C            3.65755024107573        1.68452692484049       -0.30114336740552
C            2.47305627844762        0.97734397488769       -0.01677271506066
C            1.58067327429571        1.50244334329678        0.95583312471598
N            0.33574707589716        1.21941535373010        1.03976456760626
C           -0.47558705505687        0.35632582652964        0.44846924476093
C           -0.00644807917430       -1.02058255127899        0.29628143664721
C           -0.79448971507522       -2.10773824214407        0.69355905139417
C           -2.17347608516219       -2.10094397646180        0.83344921512685
N           -3.05284442631346       -1.27942000049080        0.30797827492118
C           -2.85364942788036       -0.08606948876355       -0.22132298346762
C           -1.74796560633038        0.78077932770247        0.06398181163659
C           -1.96726177588809        2.16462159462252       -0.07290101545720
N           -2.18926920851995        3.28160761625525       -0.22496622228971
N           -3.86167299756768        0.39193734552499       -0.96604296888075
H           -3.85584110050716        1.34333455620513       -1.29441454116784
H           -4.69039255346441       -0.16970428978527       -1.06717570872513
H           -2.63366845224774       -2.95381037739434        1.32215233765869
H           -0.28342458999902       -3.03883547991462        0.90092655280145
C            1.28034915038673       -1.21647157364285       -0.26292817770182
C            1.53997385374939       -2.53008745394762       -0.72420701297870
N            1.76763192501766       -3.59020552701532       -1.09928557803965
C            2.29534295655724       -0.29299452448113       -0.54851147790091
H            3.10315041194894       -0.67107603842331       -1.16630843491840
H            1.95467454640282        2.21301000239663        1.68461636527594
