29
 energy: -50.347487556970 gnorm: 0.000459790602 xtb: 6.6.1 (8d0f1dd)
N           -5.02152120981615       -1.01556814691834       -0.91977056276289
C           -3.90082073068097       -0.90561561481211       -0.67953276666652
C           -2.53414018728497       -0.75241606831961       -0.38884524771885
C           -2.16164175268849        0.44214482790425        0.30344114407812
C           -0.85581989370172        0.91635905703279        0.45386816346342
C           -0.73399997480642        2.18102065314352        1.05444893786064
N           -0.65559683997577        3.21603616174103        1.55550629261516
C            0.39450990803942        0.33874246701991        0.02854667988817
C            0.59420706444819       -1.10442744480511       -0.02275836651249
N            1.71831907496119       -1.65596877132884        0.40216737563470
C            2.95460362667138       -1.23399793483304        0.47682767195028
C            3.50718757532511       -0.14349132143575       -0.23003056805492
C            2.77830855302879        0.96788951995378       -0.60878410793273
C            1.40694452677912        1.20497083736721       -0.31557493655038
H            1.11508900893802        2.24449945308428       -0.41531374622613
N            3.42633468166938        1.97969344886029       -1.25005219987575
H            2.97582691116612        2.87351557959488       -1.33750882785978
H            4.42878956952216        1.95881674703181       -1.31456556244684
H            4.57876841652161       -0.12739370948972       -0.37501764161307
N            3.78065842288173       -1.99214828131089        1.24131782429461
H            4.77491760726557       -1.86879260399335        1.18967581979321
H            3.41435028965339       -2.84041750645643        1.63587835271758
C           -0.36637215233713       -2.00272947055856       -0.50291513911750
C           -1.70813629777716       -1.81093205480297       -0.75016638985560
H           -2.22227380902986       -2.63974544686112       -1.22450449368126
H            0.02609843060626       -2.99073042043463       -0.70411228027056
N           -3.17749718761799        1.18817431884453        0.80397216800199
H           -2.98619691978908        2.08890608562828        1.20877475358482
H           -4.12897097440120        0.93447183323957        0.59915760297991
