27
 energy: -51.708656535748 gnorm: 0.000739602334 xtb: 6.6.1 (8d0f1dd)
N           -5.00237426956340       -0.30987230882970       -1.10463671172971
C           -3.90812859765298       -0.43856702533882       -0.77797657583658
C           -2.56375330302431       -0.57603463948806       -0.37297718969612
C           -2.01163263257383        0.53352846218046        0.34443517982322
N           -2.87548922391170        1.47626025745520        0.77044687592290
H           -3.85278816367095        1.40711756954734        0.53954204967007
H           -2.53033486703599        2.31879566792322        1.20068520238441
C           -0.63851769925591        0.74714054234966        0.55029938211876
C           -0.28747221338848        1.97434350637898        1.15227409809004
N           -0.05667589521992        2.94493878852779        1.72359619226205
C            0.44684128476164       -0.11259691499431        0.22290384079564
C            0.32914244710149       -1.56636252762766        0.29020261841012
N            1.27104659188905       -2.23546886900790        0.94816541704610
C            2.53712298488681       -2.02891466445338        1.07550058352116
N            3.33551158563877       -1.32105356593186        0.29252947563563
C            2.92074541514730       -0.25998682764365       -0.37423289767684
C            1.66879456890004        0.43788724187324       -0.18185857265398
C            1.67077330698512        1.77520130285480       -0.62576029478848
N            1.73940443047728        2.83105755035711       -1.07663525937326
N            3.81508423238821        0.27944531939349       -1.21748442867292
H            4.72726692334967       -0.14223334936998       -1.26558679033937
H            3.65664040973342        1.18310188832687       -1.63192718997247
H            3.03844927952519       -2.60670314835057        1.84546145678820
C           -0.72999772410710       -2.27634337308725       -0.26219711355405
C           -1.96469722804071       -1.79422167068866       -0.66134018040443
H           -2.60131468871263       -2.50010699118309       -1.18233585415986
H           -0.55355685252790       -3.33689035207046       -0.38065571851134
