24
 energy: -42.949052914182 gnorm: 0.000579937574 xtb: 6.6.1 (8d0f1dd)
N            1.11975693184592        3.10400554691881        0.95227436445690
C            1.09932559096662        2.00787888998451        0.60432230343110
C            1.13829790557781        0.66610621366501        0.17949887417313
C            2.40744695181705        0.03612782059491        0.18712412654577
C            2.71799132242516       -1.17187833327608       -0.46456935818660
C            1.80352683900154       -2.03943541352589       -1.02581280612910
N            0.53436711507075       -2.16534093991488       -0.72621237168112
C           -0.29500143033215       -1.33974972270889       -0.13924933334621
C           -1.37385639735351       -1.84327624258009        0.61279973559646
C           -2.50880192173780       -1.15634947625114        1.00448626531528
N           -3.03242855674555       -0.04233456291666        0.52923938770808
C           -2.40382171051204        0.73590036963504       -0.35282325287248
N           -1.09974785649074        0.94200534153674       -0.45543224752414
C           -0.12055893513941        0.12031210504668       -0.17211723636854
N           -3.19233189458033        1.51763993788837       -1.11555515059597
H           -4.17322294358987        1.54832536459551       -0.89951496040692
H           -2.77046340613385        2.26874239566012       -1.63287000082573
H           -3.15263289805401       -1.64077240204517        1.73277319422454
H           -1.26403667054175       -2.86588499826598        0.94793962554325
H            2.16985050307981       -2.80717807333537       -1.69985429320976
H            3.76863168121707       -1.40273830481874       -0.57713564142786
N            3.43169390116825        0.71414849774402        0.75745040538061
H            3.28817926906633        1.65570565280636        1.08337896776204
H            4.37280923677467        0.37979679526261        0.65052574203595
