31
 energy: -53.766566197614 gnorm: 0.000833496992 xtb: 6.6.1 (8d0f1dd)
N           -2.72934062653646       -3.56705378770187       -0.96394375779394
C           -2.19392774819686       -2.61591161263702       -0.59767549969902
C           -1.55631503762877       -1.45067907469801       -0.14249393566827
C           -2.19946152136857       -0.24752247710442       -0.32568412561968
N           -3.37264954335197       -0.19247016385858       -1.02579566549160
H           -3.96085515035013        0.61700416117940       -0.91402429841357
H           -3.82981583422552       -1.06374428284193       -1.24291786450752
C           -1.74427052378911        1.01438349466270        0.23686097882855
C           -2.75064581483729        1.94969170606889        0.52984629241432
N           -3.56384674987385        2.73199430970053        0.76134132609972
C           -0.43997760696981        1.40160003031105        0.45619695747593
N           -0.16171361415689        2.58886484231012        1.04203317212924
H            0.78968647803465        2.90968572738523        1.07601558104469
H           -0.90511272157449        3.21045237022158        1.31498042667937
C            0.71399365198919        0.57450465775944        0.09149270391400
C            1.76789889869895        1.08887751049298       -0.61903895263891
N            1.67907827249054        2.37585000854984       -1.15687957482518
H            0.74750233430268        2.67931141740575       -1.40305373616663
H            2.34850592284601        2.55763443210893       -1.88981119989482
C            2.98102875797378        0.38803753438109       -0.89407578701252
C            3.51908548571187       -0.62459729865441       -0.14951564449390
N            3.09104200910229       -0.98026554664555        1.09508508356928
C            1.88769015164612       -1.01152411053609        1.48414227073376
C            0.69055682595508       -0.77237642310605        0.66155164799848
C           -0.32071301958343       -1.64757064878739        0.58103667963188
H           -0.20232502141445       -2.61950588039215        1.04399267270315
H            1.73583291397348       -1.21603522703417        2.54163528879422
N            4.71705666801041       -1.20461826290008       -0.48995626512629
H            4.95750671419952       -2.04361609341981        0.00999505140042
H            5.00858528242653       -1.15199947446454       -1.45010602252243
H            3.57087978749730        0.75611735804438       -1.72419595754335
