26
 energy: -51.995093657835 gnorm: 0.000700044639 xtb: 6.6.1 (8d0f1dd)
N           -5.10498275058006        0.22556366742623        0.95972727907255
C           -3.97925603548620        0.09203858512356        0.77224206370515
C           -2.60584473666208       -0.03030131935917        0.51007338431103
C           -2.02827474813732        0.78041441103797       -0.53137874911493
N           -0.76493422257470        1.12129910701692       -0.56280758511011
C            0.33252145135206        0.58564750683066       -0.08440013745835
C            0.30265814314634       -0.88871403850428        0.10364270775218
N           -0.65212331770817       -1.37941172938023        0.82466758109468
C           -1.81943246616401       -0.92817276823380        1.21647615101095
H           -2.22496527875811       -1.42606287752600        2.08927920387682
C            1.26895549584224       -1.70726833715187       -0.53828944059364
C            0.88939496578543       -3.01706845752546       -0.89412209901579
N            0.57488647840085       -4.07480986707305       -1.20851372927712
C            2.56664186591841       -1.28269732479401       -0.81229703577933
N            3.22253979668832       -0.26775839506587       -0.30739368314864
C            2.77708001352861        0.80922680663745        0.31439102387213
C            1.45826990710654        1.35507733111268        0.20551215444627
C            1.30145745837033        2.73891764547838        0.39656171030601
N            1.21380301424725        3.86972592440850        0.58159412086105
N            3.70760414415442        1.51429786558463        0.98058885648101
H            3.49373531403930        2.42657887055551        1.34734681822379
H            4.66213561910061        1.19955615727740        0.94353256134374
H            3.18627472902005       -1.93651549689340       -1.41818208474185
N           -2.83166846186898        1.32565503014429       -1.46120355681145
H           -3.83019035464645        1.23879982347141       -1.37606969469912
H           -2.44555766703962        1.99639558261080       -2.10289785089014
