26
 energy: -42.371885487457 gnorm: 0.000835385454 xtb: 6.6.1 (8d0f1dd)
N           -0.60260057750830       -3.64142601186122        0.64411303285173
C           -0.63985668752016       -2.50375939065763        0.46162100655827
C           -0.72247143271791       -1.11900687144239        0.25030351246793
C           -2.02243390955169       -0.56892403722145        0.22079905187263
C           -2.36964260726416        0.73307267893549       -0.15930289056536
C           -1.56143800399940        1.85399017979083       -0.28691934125637
C           -0.19971486800441        1.95349653849701        0.06708969416199
C            0.70385474861737        0.95084964164731        0.32242733561018
N            1.81262207406268        1.27596055206358        1.00262297964228
C            3.05143213584666        0.97328085639572        0.84328290865272
C            3.60653889780596        0.19802441851952       -0.19200478870420
C            2.88426377184230       -0.79197320356461       -0.81825123874347
C            1.55450794059517       -1.16501184094570       -0.59596719827633
C            0.51279022176823       -0.45818716079786       -0.00418570673607
H            1.27436866575098       -2.12752304523073       -1.00744856288002
H            3.43579406603635       -1.44101293628722       -1.48846239597555
H            4.66866026753107        0.26990929347093       -0.37360777469663
H            3.71784432753897        1.38027870775728        1.59893349393459
H            0.18290081352013        2.95850331142271        0.19728047016628
N           -2.15377474076515        3.00600801736010       -0.71265415952185
H           -3.15522447646265        3.05829313029241       -0.77089486019215
H           -1.64690121456362        3.86994605258002       -0.64415705640178
H           -3.42857483978530        0.89509485769726       -0.32617389118235
N           -3.05206688358536       -1.40749534289532        0.51840438721875
H           -2.86689691093200       -2.38728401704829        0.65266533239216
H           -3.99640710815301       -1.12271241747698        0.33147546020094
