27
 energy: -46.903795707924 gnorm: 0.000625058204 xtb: 6.6.1 (8d0f1dd)
N            5.07924009414255        0.98527107128947        0.27296709288633
C            3.93745748224088        0.84555798711556        0.23181480099521
C            2.54571003549828        0.65408003666158        0.17369169878857
C            1.75969344049498        1.67179064844912        0.71955413522019
C            0.39980941024366        1.84173044462851        0.67925908140581
C           -0.60406408407512        0.98820149521494        0.17386263185714
N           -1.71487274453553        1.59593180183082       -0.18111468097483
C           -2.97055823044419        1.24611567524340       -0.29573619374214
N           -3.75907633623122        2.10476718928046       -0.97965040900825
H           -4.73931378251837        1.92533121735589       -1.09166451420298
H           -3.34088914594832        2.89758731087248       -1.43263376957984
C           -3.56328156022801        0.11730345701939        0.32583016508795
C           -2.85472735995576       -1.02062876633042        0.60742278140622
C           -1.50281893617423       -1.31018443787600        0.35570006474661
C           -1.17189893654374       -2.66412738640947        0.56452930940255
N           -0.93230333160738       -3.77706143496970        0.73052833300676
C           -0.41785162870880       -0.44616936672751        0.02222668794411
C            0.77744183924626       -1.03549447532798       -0.38695985092157
C            2.08756520814894       -0.55647236595737       -0.41719038951397
N            3.02168073131366       -1.35369820026884       -0.99018707974718
H            3.99758447158696       -1.12455938081678       -0.89905444149209
H            2.77482972245656       -2.28392705795551       -1.27954332255547
H            0.68605313270500       -2.07114293925752       -0.69838371781045
H           -3.42348921923570       -1.85705484597299        0.99876744049596
H           -4.63313647071166        0.11986396040597        0.47169298677444
H            0.01958208272524        2.79371264226268        1.02637178249902
H            2.32398875231255        2.48281614484018        1.16662224263544
