28
 energy: -46.604912595760 gnorm: 0.000532411364 xtb: 6.6.1 (8d0f1dd)
N           -5.31111211280036       -0.35277423100883        1.32198997013308
C           -4.29862070354318       -0.19866709093201        0.80447365093992
C           -3.05344445843654        0.00180392441888        0.16252391717305
C           -3.07996679041516        0.93278449080355       -0.95549784903565
C           -2.03159779493453        1.63206611797045       -1.41215580397218
C           -0.69725646610876        1.61991651088922       -0.87019218499317
C           -0.07932790689544        0.61190584300243       -0.22217357773860
C            1.24686770962920        0.86350127659393        0.36912689327291
N            1.34471394076518        2.01426375430194        1.08246053979630
H            2.18257986815657        2.21407201716492        1.60316977136825
H            0.52021136554041        2.55828152195137        1.26326685141961
C            2.34204682571672        0.05544072514327        0.19418332423063
C            3.56185695089286        0.50024633565982        0.73642747502238
N            4.55712301230804        0.85766482802821        1.19101826592939
C            2.38953573599471       -1.22431414465009       -0.49640798164129
C            1.34167913166937       -2.09232665521432       -0.55883372602296
C            0.02296710626122       -1.87905752982237       -0.08132976462456
C           -0.64580051604234       -0.70731987119356        0.05922163049526
C           -1.99738838963918       -0.71879372538402        0.60021562556811
H           -2.16900489896666       -1.41309129396199        1.41703221082967
H           -0.54496467046251       -2.78123979134606        0.11346817156493
H            1.54562592384436       -3.07615817874023       -0.96158169887720
N            3.60696798217085       -1.56213922571441       -1.03910696609680
H            4.42154794178506       -1.06913370602715       -0.71029982685806
H            3.74958303128141       -2.52867883081094       -1.28053220815265
H           -0.12739198389747        2.52434206392394       -1.04832153591370
H           -2.19876088398515        2.34078118167555       -2.21309972435145
H           -4.05616408548918        1.09309284237868       -1.39422626836661
