31
 energy: -53.779935129657 gnorm: 0.000673523970 xtb: 6.6.1 (8d0f1dd)
N           -5.22934517116402        0.01360290827444       -0.84533494300550
C           -4.17806871511025        0.18826948113698       -0.41063387841812
C           -2.88572667233833        0.36485297495585        0.11402186206592
C           -1.86630109243172       -0.36859374723497       -0.44738121370227
N           -2.05906995431167       -1.08322064072861       -1.58554016339699
H           -1.39382803365848       -1.80169351384940       -1.81705898902417
H           -2.98714670423899       -1.14581656402606       -1.97309863294959
C           -0.50440198958518       -0.41252663087720        0.10608409024318
C            0.12569446957475       -1.59788218393503        0.33295054945223
N            1.37932120395627       -1.77771593377379        0.83956582542974
C            2.39736171029697       -1.01208710188774        0.65039418189507
N            3.55044942083387       -1.35198286414621        1.28218402143487
H            3.57513199661819       -2.24414077546357        1.74514827339248
H            4.41891772235279       -0.93991741895121        0.98688770088217
C            2.46891183010509        0.17056289637074       -0.20970479995650
C            3.70788330289310        0.43545433200102       -0.80975280463570
N            4.73294840437291        0.64131970074335       -1.29299000314558
C            1.42672844079331        1.04348606984723       -0.40357324362761
N            1.54623087082099        2.10929695504938       -1.22244803675036
H            2.40040394716491        2.27132113750791       -1.72983685291481
H            0.78810931478025        2.76266651839242       -1.30715663332795
C            0.13362485938161        0.89284739987311        0.28311145276720
C           -0.40189874823496        1.93710906175972        0.94601495499886
C           -1.68466931047787        1.97879945994047        1.58665145564403
C           -2.77616914041896        1.27971967518494        1.22374165767356
H           -3.70866989387933        1.47815045783850        1.73788582570020
H           -1.78582437151526        2.70349790843124        2.38351755043028
H            0.19849848433072        2.83395609430685        1.04944577103633
N           -0.52824755865381       -2.81617460181306        0.11798409010367
H           -1.50573699124406       -2.82382181496892        0.37548814338187
H           -0.01756309441468       -3.57689687315871        0.54483019642330
