25
 energy: -48.246897525198 gnorm: 0.000781808129 xtb: 6.6.1 (8d0f1dd)
N            4.89374060775405        0.90136163032887        0.00989674716206
C            3.75118649778936        0.81711360910062        0.09596218438138
C            2.35083463560219        0.70813013973489        0.17249328394290
C            1.65796423666690        1.64469245320707        0.97643914077582
N            0.42686106990077        1.98484634784781        0.86983074211145
C           -0.58700141008967        1.48394771382587        0.16299890199614
C           -1.46178923808545        2.34428997844007       -0.48128480016232
C           -2.69376551101160        1.97796200429477       -1.03488485583029
N           -3.48592252660968        1.01966965052097       -0.64561644742613
C           -3.22115498265325        0.04305735163772        0.20328094073448
C           -1.99624094923138       -0.54094598717058        0.47224765729576
C           -1.98237761741643       -1.74325019139920        1.21124659199260
N           -1.98164311971610       -2.68119658869667        1.87258378800064
C           -0.72370939031520        0.03120517066193        0.11414953986213
C            0.35566342918179       -0.77480672767987       -0.21678084773268
C            0.06524702352473       -2.12452780995938       -0.52886030764463
N           -0.10495339383374       -3.21033926795044       -0.86135475860392
C            1.73598161908215       -0.40625927058725       -0.42458064150475
N            2.50033239904449       -1.26292850282161       -1.12355439050878
H            2.12637098060917       -2.14549238469567       -1.43409141856231
H            3.49154831788318       -1.09786155883617       -1.19892238732039
H           -4.10561101097382       -0.42938447493121        0.61779276501508
H           -3.12437150289593        2.62592110168166       -1.79153092400224
H           -1.12278528490636        3.36363027116238       -0.60740852476556
H            2.22919563000009        2.19132412998357        1.71975769619347
