23
 energy: -38.424554653419 gnorm: 0.000841800347 xtb: 6.6.1 (8d0f1dd)
N            3.21388674984023        1.40642559966851       -1.01501223816436
C            2.36461313474121        0.67146333897501       -0.25660630356943
N            2.91205193136651       -0.39843858222984        0.29677718991575
C            2.21682020913414       -1.25193431383223        1.04306593052364
N            0.97826908990603       -1.59693938797771        0.98501305793176
C           -0.02005739569994       -0.99285080974132        0.31154939106963
C           -0.97418571242526       -1.75395202139513       -0.32317043643369
C           -2.19695448424385       -1.31729523872555       -0.86787334132707
C           -2.87402386304191       -0.16547865540700       -0.60122994918227
C           -2.42251905275893        0.84029759414443        0.31859103312070
N           -1.18959848138882        1.14214791105160        0.59553880855484
C           -0.07067322579348        0.47405715898625        0.28549271629310
C            1.05937826045423        1.18954859119292       -0.05101122840698
H            0.91102864977818        2.24186046104450       -0.25797499600438
N           -3.36927564916661        1.61390859464461        0.90146368952416
H           -3.07924051574489        2.34606978111856        1.52389743706313
H           -4.33934725660735        1.50721179605999        0.67214042769517
H           -3.86183683196756       -0.02913125655335       -1.01942522969460
H           -2.69908137340028       -2.03436978809102       -1.50735257756235
H           -0.73347859596400       -2.80200141693561       -0.44164084471732
H            2.82539194969145       -1.82493128702992        1.73881705159703
H            4.17671612727326        1.12018644048325       -1.04560729511447
H            2.96601382991593        2.33398844564910       -1.30645736391226
