31
 energy: -48.969611150472 gnorm: 0.000589409615 xtb: 6.6.1 (8d0f1dd)
N           -5.18507945861545        0.00070838476203       -0.00146477386640
C           -4.02901626449094        0.00057782260218       -0.00114675348859
C           -2.63348970510400        0.00030444096192       -0.00075505771902
C           -1.97945836090765       -1.23934967637057        0.19934295195528
N           -2.79454633378448       -2.30469958595110        0.46755594681170
H           -2.41380428336120       -3.23354069787183        0.43673051393796
H           -3.78711802467049       -2.20087263341057        0.34124605245711
C           -0.61974765364569       -1.50048111687708        0.15611103897155
C            0.54922848875311       -0.72431994992380        0.00920995515894
C            1.71091754973085       -1.50308433016204       -0.12184135166187
C            3.07771971714139       -1.23052222721515       -0.15919678144510
N            3.90491541877192       -2.32569989609355       -0.27192745301628
H            3.50270445357931       -3.18500032559547       -0.60581731102858
H            4.86299866378369       -2.16231070596980       -0.52999947165649
C            3.70789830018086       -0.00077189685524        0.00090419878338
C            3.07805320947283        1.22919202845458        0.16067605813319
N            3.90555972599458        2.32409095074801        0.27383296091826
H            4.86345345724648        2.16037933223520        0.53240379537825
H            3.50346518623535        3.18352812418491        0.60751112705551
C            1.71136335484743        1.50221461110395        0.12261207872176
C            0.54948014687581        0.72384182793141       -0.00903872957722
C           -0.61915310729929        1.50040108827194       -0.15654731980965
C           -1.97892799674542        1.23973242369160       -0.20050122995844
N           -2.79351582719493        2.30535515743145       -0.46914109523623
H           -3.78619060645044        2.20185655395013       -0.34336680725675
H           -2.41247975434821        3.23406806121530       -0.43811307179804
H           -0.41301907247799        2.56067239189066       -0.27182188173923
H            1.51033301341993        2.56653583764728        0.20003546722840
H            4.79074923738792       -0.00095496667621        0.00118529548367
H            1.50956954719759       -2.56733756301655       -0.19937282847891
H           -0.41403403832289       -2.56082231639347        0.27149714294185
