24
 energy: -42.947768278164 gnorm: 0.000407148044 xtb: 6.6.1 (8d0f1dd)
N           -1.68063473969668       -3.49188390652425       -0.71947515174768
C           -1.49508775194110       -2.37018630656829       -0.55001892667320
C           -1.31158246877662       -0.98651406022920       -0.35224508050822
C           -0.05722491784692       -0.57239550971733        0.16841624608178
C            0.79511803928689       -1.52496467580282        0.73504391346516
C            2.16149480836358       -1.42722751604881        0.95714523359968
N            3.04960025791039       -0.60795650622323        0.45017606532204
C            2.79118598185018        0.50794074826128       -0.23524014711747
C            1.60335859826285        1.25273941626341       -0.25319102841651
C            0.31573622057131        0.83778852711061        0.06714735137155
N           -0.56998296101951        1.80126330456404        0.30475223568312
C           -1.87056084297152        1.81551922572503        0.20962255172860
N           -2.66422306624902        1.05442966869088       -0.58267960856179
C           -2.36950216015578       -0.18892548873925       -0.83117586974980
H           -3.11550906252269       -0.70094190387078       -1.43388165804411
N           -2.52500701409992        2.78572736802064        0.87483476670464
H           -2.00484275726803        3.46543480809035        1.39912805331318
H           -3.50440294826262        2.91391646538652        0.69556454844925
H            1.68460807086314        2.29274808289009       -0.54310277264861
N            3.87894299745539        1.01855568349104       -0.85332694734813
H            4.75402377464186        0.53648603823967       -0.74836076567487
H            3.84535786552298        1.90321618797296       -1.32463607943926
H            2.61432264275998       -2.21442703069701        1.55408535018208
H            0.33486094172010       -2.46242428528318        1.02319577072950
