34
 energy: -56.924645200943 gnorm: 0.000725498436 xtb: 6.6.1 (8d0f1dd)
N           -4.83291868806097       -1.78688109395968        0.39207135456374
C           -3.87576877384096       -1.22315145564217        0.09015038114884
C           -2.68520439809109       -0.56609124573286       -0.26258220339413
C           -1.55109747177813       -0.84855357229879        0.45894061116386
N           -1.58975949172880       -1.60168974330197        1.58945891916674
H           -0.72975987255510       -2.00396426596506        1.92091213099244
H           -2.45510509144456       -2.04784003702265        1.84989670702914
C           -0.23038542104511       -0.33280996628972        0.06902401909723
C            0.81877446823115       -1.16739649890607       -0.12007837109889
N            0.64777996675873       -2.55554044471707       -0.05874607545661
H           -0.25304733278437       -2.88432350905654       -0.37578692618497
H            1.40901905505675       -3.07539605212547       -0.47306213759456
C            2.18409778816785       -0.72181233229170       -0.35725714405381
C            2.98875644970496       -1.58055727339997       -1.11692116390616
N            3.64476381186183       -2.27688387277594       -1.76118519097997
C            2.78302104740145        0.38702414926349        0.21274209488495
N            4.13877023633742        0.53679323816048        0.11113427346219
H            4.54586360843673        1.43121322559115        0.31817643336072
H            4.63989683585934       -0.06476134418187       -0.52125848209874
C            2.11795989811913        1.35019846515423        1.03407754553437
C            0.81103439928417        1.70868352175549        0.97102300479868
N            0.32038695089945        2.69753382910908        1.78096455583190
H            0.83024769331532        2.93469933909574        2.61586605661440
H           -0.67656217499479        2.82475111733124        1.80568801244883
C           -0.14211290134323        1.13143898194112        0.01045161687879
C           -0.92422858614304        1.89999608135393       -0.78733235807050
N           -0.80726459954228        3.28945599085910       -0.79901497432558
H            0.08632805562197        3.64980906336509       -0.50052997365290
H           -1.15491744115104        3.72903928308607       -1.63744523827873
C           -1.96512968654046        1.37610926604605       -1.64779748211969
C           -2.74536725128065        0.30969672479306       -1.40749059700188
H           -3.56029624253999        0.10651463543652       -2.09162139664776
H           -2.19025233684928        1.97996554694693       -2.51863186954217
H            2.75596428684742        1.88861172986225        1.72499623142437
