26
 energy: -42.365748836401 gnorm: 0.000557034174 xtb: 6.6.1 (8d0f1dd)
N           -3.96100739976696       -2.25246454506117       -1.20224178075148
C           -3.20666014047030       -1.47337305080412       -0.82182990859295
C           -2.27455079716429       -0.52787578343014       -0.34947419039565
C           -1.12117548078112       -1.07290672911946        0.32370910294833
C            0.07051415345477       -0.47650601463455        0.50910323057617
C            1.11197815690376       -1.16307190812462        1.28392160146574
C            2.38684577680141       -1.29644597734476        0.91355286818743
C            2.95221717260037       -0.75847181619686       -0.32594879861762
N            2.63447825304238        0.34399360124523       -0.90576241913174
C            1.62788880936987        1.17197298083027       -0.51434051470913
C            0.43997184809633        0.86625391298164        0.05434438144135
C           -0.52629019358340        1.94110994069140        0.34007802589131
N            0.01731177213633        3.08294833854089        0.85542359815186
H           -0.59199021323787        3.78174060682558        1.24525210589249
H            0.97018088474276        3.06523110474178        1.17339640838157
C           -1.85501457753588        1.89373830019786        0.04189672213487
C           -2.59243398404625        0.79577240247484       -0.45967380106723
H           -3.55619301639992        1.03386526065218       -0.89427328005424
H           -2.41335635044756        2.81356273249461        0.17097120027436
H            1.79730329362907        2.19276071606145       -0.84113931152318
N            4.02481356006325       -1.43910960034451       -0.82597110975427
H            4.34930760267749       -1.14795564023230       -1.73301828339889
H            4.14870767700035       -2.40518219786651       -0.57814287500717
H            3.07261099790711       -1.85623768883273        1.53719219723256
H            0.78738697682600       -1.61352876056051        2.21606034643224
H           -1.23696423401769       -2.08971598428550        0.68221275619363
