30
 energy: -49.259738478437 gnorm: 0.000486719111 xtb: 6.6.1 (8d0f1dd)
N           -1.07242820342511       -3.44152696245094       -0.98220207450238
C           -1.10966094880207       -2.33441806116721       -0.65652597432630
C           -1.21658540266291       -0.98451754605086       -0.28579729893613
C           -2.54394455045927       -0.50033222676058       -0.25241492556501
C           -2.96298573299028        0.76147730075842        0.16202145986278
C           -2.17952536413240        1.89019183370228        0.36947166771835
C           -0.80058493834416        2.01707941192186        0.17526026051915
C            0.21508164030006        1.08790386487247       -0.03662159710828
C            1.47436214858803        1.64383216816297       -0.35368574101080
C            2.75372064648306        1.10838220267189       -0.37583727702509
N            3.21361556680116       -0.04861120542592        0.11221125294665
C            2.44316882974441       -1.03117098074037        0.53518537685520
N            3.13055933128490       -2.03925355802352        1.13957906800021
H            4.13358803075665       -1.99719824817941        1.08804165835309
H            2.69530029362338       -2.93563723867742        1.26559764539332
C            1.05251309802412       -1.21820613287541        0.39345422979588
C            0.02911534545395       -0.35164376663004        0.03438862831678
H            0.74156421730542       -2.23645446630919        0.59817998014711
N            3.76606970722271        1.90954768129051       -0.83072353769534
H            3.54874561569164        2.69478037329323       -1.41784367335504
H            4.66072184229774        1.46630185843707       -0.94642526355329
H            1.43946122797968        2.69096199183458       -0.63563780367678
H           -0.45396961173842        3.04371037029184        0.23453090014361
N           -2.84882665165790        3.05092985219327        0.67893247028408
H           -2.31207365827157        3.82223421488975        1.03707234111109
H           -3.79269902774157        2.97479820890864        1.01707113488016
H           -4.03381784481146        0.89616171432323        0.26074649784227
N           -3.52897752325239       -1.36952965994823       -0.62036330716243
H           -3.30568342970286       -2.33354560062892       -0.79617943520217
H           -4.48895968967079       -1.12032136748634       -0.46783490025649
