26
 energy: -42.365320587473 gnorm: 0.000945223557 xtb: 6.6.1 (8d0f1dd)
N           -2.27014152910281       -2.97429020133225        0.80355499768155
C           -2.01242409596205       -1.88058312902525        0.55331012177069
C           -1.75187115170325       -0.52738821705700        0.26464012552645
C           -2.87080641073740        0.30311628975695        0.50849790388668
N           -3.12077416935363        1.52055194667880        0.14510728779848
C           -2.23106947750305        2.30458967391808       -0.49234112321309
C           -0.88036892980311        2.22687796704173       -0.56461783792282
C            0.03553868741633        1.18352502350995       -0.15172776745844
C            1.32820927082576        1.59575721044222        0.05219131444041
C            2.53591888067933        0.88468419694989        0.28880654646717
N            3.59932757757712        1.65291876184232        0.66118633916353
H            4.45227165415168        1.20679347908126        0.94788633727667
H            3.44050589637942        2.59344865498490        0.97620682897854
C            2.75828863403635       -0.45314423614725        0.04989460198670
C            1.81116876729440       -1.40704819882543       -0.37294992353098
N            2.30693939225011       -2.61595961685547       -0.75300321964855
H            1.67576377235170       -3.38443985349761       -0.89713512408067
H            3.27600455546747       -2.83021593882690       -0.59914023985248
C            0.42816045863282       -1.27173756592516       -0.38134898284748
C           -0.41859102877827       -0.19019943472026       -0.08828945189323
H           -0.09653336221196       -2.19622169175274       -0.59716800796545
H            3.77426934318722       -0.80928324042658        0.16916945804372
H            1.46620091950466        2.67201328887512        0.05091839544433
H           -0.38547088451627        3.07891156922290       -1.01647233829094
H           -2.70284958313049        3.18068843291277       -0.92814977613736
H           -3.69832712777505       -0.17818467255064        1.02573808838053
