22
 energy: -39.509803155392 gnorm: 0.000742368674 xtb: 6.6.1 (8d0f1dd)
N            2.14943467527197        2.75296866777859        1.21647290868016
C            1.88549005949053        1.70581901135597        0.82777131644223
C            1.55952724019882        0.40422940021540        0.38906501555049
C            0.31625702663725        0.24826598128375       -0.25281715124058
N           -0.25796628674571        1.24747509136155       -0.88472594822024
C           -1.50096242322313        1.51428105723258       -1.16768460026300
N           -2.58421267084731        1.10993503095331       -0.53870906497153
C           -2.50723100067005        0.01154450399237        0.22817956393980
N           -1.66385360766206       -0.99903639536629        0.08192038764775
C           -0.40906750566719       -1.03083233907889       -0.29587087217129
C            0.18105093907142       -2.24076359727611       -0.70044068574213
C            1.50883335599601       -2.57536708901647       -0.58471640641496
C            2.54048031449630       -1.87374117987661        0.04899518801696
C            2.52938216815041       -0.59111998459912        0.55463904395059
H            3.42933511922120       -0.26534871405415        1.06348594187724
H            3.46755973934985       -2.41843403575672        0.17027608692945
H            1.77615278412047       -3.56258126089705       -0.94176689078900
H           -0.50674072665378       -2.99778711359721       -1.05268625720510
N           -3.49814899659784       -0.15707975704154        1.12034059014960
H           -4.24662500735137        0.51251632012577        1.13063533762356
H           -3.58981883530562       -1.03302168947162        1.60264518471037
H           -1.64985476057926        2.26195875733378       -1.93918884580252
