27
 energy: -50.926041586379 gnorm: 0.000658037192 xtb: 6.6.1 (8d0f1dd)
N            5.59276006835444        0.60678501222549       -0.41927684670037
C            4.45161397684796        0.46072043596272       -0.40567142137706
C            3.06027887871855        0.26352833743098       -0.36923645067892
C            2.29203956743027        0.99739244010700       -1.28052059376616
N            1.02003575840810        1.25615720298333       -1.22142363272285
C            0.10769217498155        0.68920857652515       -0.45919768653729
N           -0.86098962760498        1.40917802918032        0.03574308725306
C           -2.06074326533223        1.05768211864173        0.46781373934612
N           -2.64638320243827        1.91988768517163        1.32879855629949
H           -3.63116686655637        1.83899776317280        1.51738075613261
H           -2.18503692432603        2.79635564815119        1.50060188129987
C           -2.79298182320931       -0.06201266395275        0.00290626904177
C           -4.18081069187236       -0.08605017494822        0.16694361478902
N           -5.32523341694474       -0.10711696572922        0.30053774628193
C           -2.15316722254044       -1.17772420691752       -0.60804749692547
N           -0.89020113507997       -1.51207256062719       -0.43364195236852
C            0.15132302849268       -0.76026455820812       -0.14938409033588
C            1.27755078650142       -1.28543052563104        0.47233845086200
C            2.56562352076654       -0.74321540625455        0.51392335950938
N            3.45903991177491       -1.31320904925249        1.35721532819656
H            4.43083763669573       -1.05711389899984        1.30504232328056
H            3.20304553248001       -2.13063683002013        1.88151977303805
H            1.13140739213350       -2.22337390750385        0.99389188470142
N           -2.90625951642158       -2.05682577093689       -1.30505045339811
H           -3.90836275720811       -1.97375270223432       -1.29711982327914
H           -2.48315193857008       -2.91911096495518       -1.59985602076863
H            2.81952400651434        1.51385036232337       -2.07624736827676
