24
 energy: -43.732973297270 gnorm: 0.000885424641 xtb: 6.6.1 (8d0f1dd)
N           -4.69928015732061       -0.30103626193611       -0.22725198264822
C           -3.56122478401600       -0.18561380484632       -0.11278739024055
C           -2.16797417609126       -0.01552180336011        0.01839605679027
C           -1.45175500210665       -1.15930411658695        0.37940918392983
C           -0.08812976391263       -1.37793357666834        0.39272328712166
C            0.33360407935367       -2.69538367794870        0.67687210183872
N            0.68009923862040       -3.76333463833940        0.91784598471069
C            0.95021299309177       -0.44220187933316        0.07872926116158
C            0.77753240996431        0.98286558422300        0.32858784972018
N            1.81707925538284        1.60409351037011        0.91051048715032
C            3.07492322130778        1.53571288107600        0.68830709567678
N            3.70801623255311        0.98078655366151       -0.35451936910190
C            3.24254627720093       -0.11332509878408       -0.89369314232440
C            2.11750339836501       -0.87849908442823       -0.53261946805237
H            2.11681026981594       -1.90586512486779       -0.87589844885998
H            3.88336072342766       -0.52874790007853       -1.66570666042553
H            3.71757791324283        2.05443958937690        1.39350628737682
C           -0.35995239336255        1.72252321211124        0.09273465275926
C           -1.67048319651155        1.29920572216695       -0.18332176221140
N           -2.55384576575252        2.24560349599490       -0.55963597372166
H           -3.52749947826058        2.01673510832650       -0.67480721633688
H           -2.26640978906130        3.20464602716523       -0.64204377107202
H           -0.21862848428582        2.79499058864391        0.15569416983301
H           -2.06356773773161       -2.02834266772308        0.59898168692305
