28
 energy: -46.615867037547 gnorm: 0.000577928502 xtb: 6.6.1 (8d0f1dd)
N           -5.00678061878999       -1.22170949185316        0.43507460763904
C           -3.89655270588317       -0.99479795022407        0.23162317017519
C           -2.54452520626560       -0.69684667313403       -0.00287601502518
C           -1.80853673611762       -1.65700529601610       -0.75423001426408
C           -0.47457487069195       -1.77914068099732       -0.91080305756856
C            0.60453261332604       -0.98386910098317       -0.36078786025683
C            1.76508472171193       -1.65743047912090       -0.09381883524869
C            3.03125553035655       -1.21141671818347        0.38157641184312
N            3.85671835972575       -2.18246904744305        0.85471364992315
H            3.52381556234515       -3.12162467053756        0.97371302851598
H            4.75584798405554       -1.94087302464600        1.22956420818823
C            3.52567239547301        0.07624461015332        0.27936965087067
C            2.85685730409932        1.17037723119024       -0.26869992233224
C            1.51571893293526        1.33362004028552       -0.51357747123633
C            1.14461585216059        2.56323598446905       -1.09141096597021
N            0.85417739753768        3.56752863056649       -1.57153201920715
C            0.40307265496900        0.44101670279167       -0.19540358751801
C           -0.76363010641110        1.05050180562375        0.17211681635169
C           -2.06372058476868        0.53495848591751        0.43753956532118
N           -2.90033947182039        1.35885881656423        1.11550660966608
H           -3.87000080593818        1.10800199369520        1.21486579813541
H           -2.63077765622484        2.30969974606364        1.29559678724921
H           -0.69464032153965        2.12283937500253        0.32364385498517
H            3.47572435317667        2.03181761002876       -0.49530932746376
H            4.55704552960125        0.22990727531246        0.56767212515576
H            1.70433453638564       -2.73459738180441       -0.21016387812218
H           -0.13579537455631       -2.62740823846749       -1.49347671610566
H           -2.42427463805167       -2.42195996776532       -1.21377077739944
