23
 energy: -38.428853243140 gnorm: 0.000528733875 xtb: 6.6.1 (8d0f1dd)
N           -2.56338673335037       -2.00758639935041       -0.95257531695841
C           -1.80457216526125       -1.06304179957877       -0.34821119278968
N           -2.41273105343421        0.09871195982380       -0.18118540218168
C           -1.81879444356410        1.17031725016389        0.35975390379710
N           -0.56649961773119        1.55552732022176        0.26463298623540
C            0.49226832268557        0.79236610120342        0.01508154195496
C            1.57626495990158        1.34189537733899       -0.66613327737633
C            2.85891239711224        0.82300530933236       -0.82674641972884
C            3.47230533774835       -0.17802539623551       -0.10110199444361
C            2.84189939766856       -0.88058747820376        0.93835960020974
N            1.57759731624934       -1.09696338393124        1.09290878529479
C            0.52918998098286       -0.62021761109547        0.41494206923168
C           -0.52922373361378       -1.45596701685132        0.12640131297428
H           -0.35071261920700       -2.51749381962613        0.23824796065242
H            3.46903988380359       -1.35906576490927        1.68623003932998
H            4.52747393399680       -0.35378406793044       -0.25599106411220
H            3.48721849353113        1.35350557985438       -1.53336544390066
H            1.35563948685821        2.27091481770475       -1.17553790461205
N           -2.66543601865735        2.04065747290801        0.95607229662587
H           -3.65218693881209        1.89591955783117        0.84025197828468
H           -2.31821814414067        2.95133163470107        1.19840782148090
H           -2.25974397032187       -2.96323046292555       -0.98345343436422
H           -3.51792794144477       -1.78150957144537       -1.16823496030394
