25
 energy: -46.695663472390 gnorm: 0.000378380154 xtb: 6.6.1 (8d0f1dd)
N           -1.92219164668730       -3.31010605163648        0.22818657598869
C           -1.57247458685012       -2.21436471299377        0.16805109398158
C           -1.19863342494154       -0.86289513842244        0.11501980923653
C           -2.19362326527021        0.08133937529334        0.54487721887381
N           -2.29253672359100        1.34240457329057        0.18360056406024
C           -1.34765123872569        2.00571889095862       -0.49323836435082
N           -0.04349109236593        1.87264764648575       -0.40339974717295
C            0.64264035770252        0.80484411850164       -0.05461728115398
N            1.82324886783410        0.98446173471068        0.48366128633506
C            2.87794495504049        0.19638629391590        0.45398594464395
N            3.20081935930136       -0.70164644641564       -0.48488574264286
C            2.29736646679640       -1.39348505133868       -1.14497016529870
C            0.92367529907796       -1.47574749167803       -0.95598501765068
C            0.10837147788494       -0.55386112328797       -0.28750782631536
H            0.42129716545623       -2.32413438113023       -1.40507821876623
H            2.73625199287804       -2.08143693491619       -1.86201751429682
N            3.81893256436427        0.40853738160942        1.39793736317877
H            4.71905898048703       -0.01744714966692        1.26621937681645
H            3.72526436078179        1.20629860659390        2.00095451327593
N           -1.79695032787378        3.03057105860432       -1.24625992951405
H           -1.12538638855259        3.68144772171212       -1.61262177260217
H           -2.76088570020444        3.29872403911842       -1.16035164618060
N           -3.20403319460918       -0.38151394348867        1.30942960192544
H           -3.97582186909300        0.23530629060941        1.49349341595741
H           -3.30448658944144       -1.36909448182904        1.47214806067346
