25
 energy: -47.480901935550 gnorm: 0.000409274612 xtb: 6.6.1 (8d0f1dd)
N           -2.04365660054531       -2.16452194729728        2.07049222949794
C           -1.88862764878684       -1.28289787646857        1.35205695445571
C           -1.70829709354980       -0.15259898009301        0.52195169504269
C           -2.80249539269595        0.70824439452735        0.41914464231092
C           -2.96024352705381        1.78315474293699       -0.44248418505943
C           -1.94639707067797        2.28103349615401       -1.25592219419199
N           -0.66623439008944        2.17441009270585       -1.03724651634559
C            0.03685906537751        1.39972121682409       -0.26119030824702
N            1.13938579090844        1.85147378608031        0.29953846781482
C            2.21096777168628        1.14690528051403        0.59208943037079
N            2.64597033434105        0.03669970022678       -0.02276589558286
C            1.87668545721763       -0.89613006063166       -0.52839027790623
N            2.50009949665160       -1.86766110769932       -1.21533217786366
H            2.00276327103219       -2.69776870885300       -1.49177901861839
H            3.50340230357121       -1.84146891402131       -1.27455416861567
C            0.45143245020354       -1.04377807586342       -0.30871722244085
C           -0.06656045731598       -2.34017463197074       -0.48216221542964
N           -0.42702134740371       -3.40990168171232       -0.70165215392580
C           -0.40893829190153        0.00852141920452       -0.02952688106186
N            3.05774829670439        1.67086274368717        1.49401760447238
H            3.96928008081666        1.26274675881378        1.59798910750116
H            2.86485137149079        2.58382466251282        1.86513813580723
H           -2.20390011853141        2.89667035968805       -2.11060840087951
H           -3.94893807850567        2.20576034866522       -0.54548009793847
H           -3.67300506684502        0.40836880977087        0.99090159463362
