25
 energy: -48.254074334980 gnorm: 0.000898502563 xtb: 6.6.1 (8d0f1dd)
N           -5.27781933747243       -0.14599069579245       -0.79291307571524
C           -4.16388095571882        0.03234519823843       -0.58442726594557
C           -2.79351887669835        0.25626436895173       -0.33319411755536
C           -2.19066955184608        1.38312866854781       -0.88450491130759
N           -1.07514532072358        1.91573232921817       -0.45665422069278
C           -0.01564626798001        1.46995936734706        0.12995307888936
C            0.81937746701361        2.34448325614013        0.88247574087655
C            2.17183022513660        2.20423951564062        1.01008509843586
N            3.00162591959606        1.45971736299759        0.28009380740763
C            2.74275445458219        0.38932783319467       -0.41074712182540
N            3.68570153430733       -0.03726131149552       -1.26513116145190
H            4.55052536163321        0.47474554720622       -1.31415596852946
H            3.62117595491453       -0.94568202502052       -1.69350687718006
C            1.55969673761314       -0.45183567873877       -0.23632657790727
C            1.73663643092658       -1.82516603455722       -0.50270155369097
N            1.94002832404184       -2.91383112101209       -0.80612090853160
C            0.32376224062705        0.03715373583833        0.09422275594103
C           -0.73454515066140       -0.82461754845017        0.57724579489173
C           -0.28316268189276       -1.89191260424406        1.39232099987785
N            0.06600244192850       -2.73548931823050        2.08601648369010
C           -2.09773423241481       -0.69140146880649        0.44901582621017
H           -2.69832002383974       -1.46118598999646        0.91980695377836
H            2.70026134047036        2.87987390096812        1.67362721763759
H            0.33323629472266        3.19226475286864        1.34316749402985
H           -2.71810319596544        1.96544211498646       -1.63097323733308
