23
 energy: -38.430498585916 gnorm: 0.000621688067 xtb: 6.6.1 (8d0f1dd)
N           -3.64700154161669       -0.91907399287091        0.99557838017499
C           -2.59760252198758       -0.30643130854227        0.37129424350429
C           -2.83481024300499        0.97336474571365       -0.15554146698305
C           -1.93812120300571        1.86138505198279       -0.71863245153256
C           -0.55574918497485        1.81406583935554       -0.75379812475720
C            0.24998013224991        0.76216028039260       -0.31620319593283
N            1.47000692254551        1.01591497931559        0.11997261975331
C            2.50592059838523        0.22249169777084        0.30673001066889
N            2.83962531352225       -0.87684837417074       -0.38533037601869
C            1.89117903654845       -1.53759014147751       -1.02018712632257
N            0.60370586559132       -1.53140808901759       -0.83798743337291
C           -0.20606941062367       -0.63621682802502       -0.27888546761463
C           -1.42215498497537       -1.05287898283043        0.23424744995926
H           -1.49277108639478       -2.11086642327189        0.45790958654683
H            2.24590148872343       -2.28688539017701       -1.72353077388446
N            3.42542615083239        0.64246409292729        1.20746997112703
H            4.32472571582494        0.19497571500123        1.18674828472990
H            3.34601213307811        1.57478678661355        1.57330125347256
H           -0.03276672102815        2.71399018452607       -1.04871606900904
H           -2.37771693519911        2.77715359122211       -1.09663899259936
H           -3.86582677878249        1.30327575782892       -0.10886514776941
H           -3.58311968868274       -1.90015738406514        1.20285177937701
H           -4.56833778942439       -0.52907290690243        0.90003207188287
