20
 energy: -36.038435626554 gnorm: 0.000500916462 xtb: 6.6.1 (8d0f1dd)
N           -1.81955732693885       -3.03325919416818       -1.14904847404596
C           -1.62016338353683       -1.96370793858805       -0.78157122042002
C           -1.36302430433194       -0.65211486426115       -0.33550862247875
C           -2.41146442530624        0.23897187018958       -0.25863765291336
N           -2.45227988466723        1.39238276749193        0.39601711592965
C           -1.47362865726402        2.19909833586667        0.66705930222716
C           -0.16640330495192        2.17002494276048        0.14893150604416
C            0.49358252202996        1.02735122575400       -0.24206849240576
N            1.65737414838434        1.11288704801981       -0.91763921811775
C            2.73796076328279        0.45358009717395       -0.76475713919669
N            3.09800757515592       -0.32813471410381        0.27182086082951
C            2.22799525343633       -1.10463710528921        0.83929113640889
C            0.85882013603716       -1.28424021405807        0.51438717816695
C            0.00919915533310       -0.33448116961517       -0.00427842190823
H            0.41420092065757       -2.22640588153284        0.81007779756141
H            2.63909946268514       -1.75891133393085        1.60255372174611
H            3.50484385243056        0.58979207030211       -1.52118329947129
H            0.39533413155103        3.09336924695265        0.11587486652646
H           -1.75597823095412        3.04785593072118        1.28232979153643
H           -3.37646417413260       -0.07332385218460       -0.64527594521991
