29
 energy: -54.372485759379 gnorm: 0.000723239223 xtb: 6.6.1 (8d0f1dd)
N           -0.45120942114743       -3.96686871168589        0.99376021037090
C           -0.61982854492223       -2.86207256043031        0.71869744229822
C           -0.87177327943484       -1.51497671834888        0.41881716452209
C           -2.20076162074869       -1.04194525720532        0.58592385098253
N           -2.76195773153470        0.00114828032026        0.00092457439609
C           -2.20015430877740        1.04370800070740       -0.58449427602831
N           -3.04969602178942        1.79206993236684       -1.32440784226251
H           -2.76238186966064        2.70052098465487       -1.64689517130094
H           -4.02703752400513        1.55994692107223       -1.29905979341342
C           -0.87070898558506        1.51564250204112       -0.41812614812646
C           -0.61779869386694        2.86247205414051       -0.71828258413685
N           -0.44773866268940        3.96671186381526       -0.99494053165577
C            0.20112392211650        0.73851233056419        0.05869034253814
N            1.23421595576147        1.31919110294980        0.60145852954604
C            2.48281978166804        0.91925645713873        0.80047935524282
C            3.16421465252433       -0.00116022961836       -0.00028722287001
C            2.48181076870587       -0.92105311662278       -0.80080539917224
N            1.23298845859193       -1.32006673891855       -0.60135795080863
C            0.20050898694103       -0.73863952534002       -0.05819549646307
N            3.13687118952931       -1.57912654663291       -1.79654514033141
H            4.14131081634420       -1.55647475124214       -1.80944843680208
H            2.68463525151157       -2.39352242236469       -2.17655198640783
H            4.24441186029259       -0.00153924720987       -0.00052854652545
N            3.13877657965625        1.57688699467771        1.79592831541342
H            2.68732325285791        2.39164940175084        2.17607307980174
H            4.14320565546376        1.55350133689784        1.80839173830202
N           -3.05053792735310       -1.78967270430843        1.32621803810632
H           -2.76382088446978       -2.69843235908172        1.64837107841159
H           -4.02771885297987       -1.55682464249106        1.30127237027038
