34
 energy: -56.928697567952 gnorm: 0.000423278598 xtb: 6.6.1 (8d0f1dd)
N           -4.64015107723621       -1.37714483504644       -1.09705632219255
C           -3.69589887880290       -0.89667804164547       -0.64336797310709
C           -2.53933548329220       -0.32542538445125       -0.09129986519464
C           -2.73498534775871        0.50984410431976        1.08918599585825
N           -3.81702618833748        0.16808631378924        1.87676284917716
H           -4.14488750482064        0.87160980851641        2.51855182123116
H           -4.54177256772464       -0.38137358967723        1.44177070310765
C           -1.96871661665071        1.58708382881915        1.39719284106567
C           -0.81945960645939        2.04573288344101        0.68714996094169
C            0.05548333796269        1.29943163555999       -0.02017123846797
C            1.12731203261658        1.94363616968485       -0.78879196575793
N            0.75399713587849        3.05240197929245       -1.49357440146488
H           -0.22805917225145        3.22216215981175       -1.62298272532077
H            1.38310196615677        3.42845841825617       -2.18263832962231
C            2.42666064196054        1.55006131901174       -0.76813023568617
C            2.99623457337168        0.48368158017493       -0.00882339838611
N            4.34510040764062        0.57063926545315        0.20065077928198
H            4.78858847146087        1.46841736760875        0.11839310016238
H            4.77474738977838       -0.09867976191036        0.81791791575139
C            2.32721876867921       -0.65426781414516        0.40855640212068
C            3.05780212587168       -1.60402910828711        1.13434111944845
N            3.65552584419448       -2.37695455711487        1.74747561342597
C            0.96959993669729       -1.03139605957688        0.05006193797720
N            0.75477529323292       -2.40784271680074       -0.09169363901528
H           -0.17593043189802       -2.71685794362393        0.15182172058253
H            1.46852048363004       -2.97596571808241        0.34366858483545
C           -0.04286366934347       -0.15589073260555       -0.16501897308371
C           -1.33754544687993       -0.61544036045916       -0.68742113695244
N           -1.28206281947667       -1.31073314481987       -1.85496614843532
H           -0.40146448612562       -1.71712436148634       -2.12093059887187
H           -2.12564573258260       -1.71935362097991       -2.22454525319319
H            3.14029918000924        2.16060097004741       -1.30908709585817
H           -0.61054912650526        3.10515407251210        0.78071334239192
H           -2.29627868409503        2.20695496631348        2.22243636345039
