27
 energy: -50.145934118286 gnorm: 0.000646998890 xtb: 6.6.1 (8d0f1dd)
N           -1.31223929389095       -3.50262564122452       -0.84423927800521
C           -1.24564037357769       -2.37475145180216       -0.61430262004271
C           -1.20620301812409       -1.00291509216344       -0.33306391149288
C           -2.41751922097470       -0.28211321951439       -0.53251005192681
N           -2.76463450993121        0.87007215748521        0.01860674250251
C           -1.92855467069897        1.66510316342695        0.68040141130045
N           -0.63845555392342        1.84873859620719        0.47714070164828
C            0.23610619807771        1.00625062402061       -0.01945235523644
N            1.30756108999341        1.50757145249916       -0.59182397202841
C            2.50748021622984        0.97889351389501       -0.69471343171255
N            3.08596884714961        0.07968669210301        0.10325818679489
C            2.41636934984605       -0.87798260806506        0.72563060569977
N            3.17054683331487       -1.64548294647555        1.54955285559373
H            4.16310043013787       -1.48902868799781        1.55479799895960
H            2.81072862731476       -2.51648156074876        1.89551434869418
C            1.06484062334173       -1.25393590809224        0.53723131100041
C            0.03817157806456       -0.45695533896084        0.06891677152821
H            0.81110298947566       -2.27187263388271        0.80966743951186
N            3.31352042705363        1.50737858271486       -1.64449441396710
H            4.29636005716777        1.30897081049378       -1.58663274898110
H            3.00377227608672        2.34051208162630       -2.11268042126593
N           -2.50896872057871        2.49126841572203        1.58200459434063
H           -1.96570990489954        3.26362349030076        1.92524391462462
H           -3.51135201658725        2.55739889926069        1.57684505734661
N           -3.38851621051525       -0.86511501406109       -1.27456057359779
H           -3.29487997242641       -1.82683696131354       -1.55370009864714
H           -4.29834799162557       -0.43854466275273       -1.26566379234044
