23
 energy: -44.015002572063 gnorm: 0.000661832085 xtb: 6.6.1 (8d0f1dd)
N            3.46981484541297        2.39220759635905       -0.83561857595697
C            2.40790242823922        2.00008424295927       -0.64356819123673
C            1.10621742534143        1.51274938332270       -0.40775094572941
C            0.05161112870191        2.40140407556011       -0.54875306861367
N           -1.18716600985597        2.29394330636343       -0.11635948491511
C           -1.84907490245287        1.21108019486371        0.22871304141342
C           -1.51852584032010       -0.14115592496805       -0.14290554175311
C           -2.58678394804446       -1.05512780342488       -0.22305402189984
N           -3.49335803869940       -1.76023265020625       -0.25126215924680
C           -0.23365427641790       -0.61219652398700       -0.37034604907571
N           -0.05693820689708       -1.79076144113097       -0.97245580585674
C            0.78083232966097       -2.73301834303545       -0.74832286371196
N            1.53391687680717       -2.91518644899716        0.34318447459667
C            2.05827318854419       -1.89686436753909        0.96412239829564
C            2.00485654626844       -0.52930508692461        0.61965376913027
C            0.98729344608122        0.13120596476398       -0.04664112981902
H            2.79808417455357        0.09443836032298        1.01365280533254
H            2.70381563045187       -2.16744311049653        1.79447832772379
H            0.82705925610568       -3.52572894012709       -1.48756334413740
N           -3.00529957465635        1.41856334132127        0.87830803029757
H           -3.64587263622334        0.66020144984785        1.04361398584950
H           -3.29943331708468        2.36726886036924        1.03874083165318
H            0.27899059918369        3.38459480868154       -0.94938883923856
