28
 energy: -49.826505222287 gnorm: 0.000561618102 xtb: 6.6.1 (8d0f1dd)
N            4.83886553525809        0.32572737331673        0.35899368872130
C            3.75337202156402        0.06068417745184        0.08103533949465
C            2.42149368329024       -0.23454300894859       -0.24752644227704
C            2.21688414113691       -1.22106896577057       -1.28852947463205
N            1.23629814242705       -2.01747900113479       -1.46397404519879
C            0.11843317109242       -2.03912435639960       -0.67595292491116
C           -0.48678607695352       -0.99825121195802       -0.07755799492082
C           -1.73212955256237       -1.15848079493952        0.71214789433732
N           -2.82644670410914       -0.52411657429751        0.48221761607886
C           -2.93295089422902        0.52227493114035       -0.37824146419860
N           -2.08732784806444        1.48677344838729       -0.57669089069191
C           -0.78447348091445        1.47546398442703       -0.19625492831817
N           -0.25958439996984        2.76902783934710       -0.07582477201387
H            0.65975244965207        2.89126529400777       -0.47884060511161
H           -0.91868255020804        3.44641885505750       -0.43561638792894
C            0.01274535407592        0.37584636761159       -0.01852999783895
C            1.42089402247064        0.48815475449886        0.37417431548830
N            1.70466401330185        1.33748602968402        1.38565547554778
H            1.00302580737320        1.99838204069648        1.67487898294058
H            2.66337138144584        1.48550512203469        1.65805253534045
N           -4.13952204183828        0.61523460860704       -0.99598634974802
H           -4.88689903704315        0.04416046395171       -0.64343033363328
H           -4.36632457416791        1.49451910405380       -1.42622819482659
N           -1.67372352054783       -2.00870481619646        1.75374994254274
H           -0.88614390611804       -2.62222896989203        1.86059229376386
H           -2.48848352514689       -2.13643225393219        2.32907596328098
H           -0.34482535882943       -3.01946238223960       -0.64061081211457
H            3.05104445771628       -1.35861158896627       -1.97158032607337
