24
 energy: -43.730896768689 gnorm: 0.000958511380 xtb: 6.6.1 (8d0f1dd)
N           -0.27830663317564       -2.94304417307567        1.61600270914152
C           -0.66627163165229       -2.05346014200314        1.00296884355956
C           -1.18559254459239       -0.93348876289001        0.31453642262896
C           -2.57502109055342       -0.86513144600400        0.25861558908904
N           -3.35029835921996       -0.04458778921677       -0.43150364015212
C           -2.85569271662516        1.02440254353309       -1.02027329546316
N           -1.81303397978859        1.71387987940828       -0.66583475980495
C           -0.71516380810212        1.43381530414403       -0.00871596218426
C           -0.05163272881890        2.45375272663669        0.69569116123653
C            1.29568350825704        2.53710761284634        0.95700106212813
C            2.33690335868177        1.73497020441905        0.50158766373824
C            2.28045859403151        0.51659348077767       -0.16982173184661
N            3.43519781689506       -0.00703493906003       -0.63521374853192
H            4.30753076478699        0.45520767839840       -0.44834551077102
H            3.45438488460521       -0.93855772599572       -1.01673333219123
C            1.10327672209009       -0.29591156479163       -0.30363420076347
C            1.32821754111492       -1.61999039876672       -0.74566007305495
N            1.56406410318558       -2.65156437989715       -1.19321152064775
C           -0.21154830519269        0.06386900747042       -0.05272829783102
H            3.33612835240935        2.11188461478037        0.67947995006378
H            1.60797117553993        3.41385813052910        1.51086274899551
H           -0.67627516839906        3.28551007968701        0.99151119994056
H           -3.45599384165790        1.45556554188080       -1.81459528957828
H           -3.11669012422142       -1.66676681891150        0.75052700489825
