31
 energy: -52.184769025045 gnorm: 0.000320659007 xtb: 6.6.1 (8d0f1dd)
N            3.99187355695212        0.39345613858925       -1.27342457466854
C            2.83069024120648        0.03625668801900       -0.60441747757869
N            2.47823134103388        0.94543808890531        0.34952756315567
C            1.27959017445577        1.20533970509629        0.72745997364061
N            1.10028645190689        1.95667749666375        1.84393012228186
H            1.91424603418833        2.37652943714661        2.26150380708758
H            0.21289320150295        2.41868827658747        1.95283953285971
C            0.04379006764707        0.69777652961771        0.09382390064445
C           -0.98103358673688        1.51626193186659       -0.26191203923376
N           -2.16370809034779        1.14243641053724       -0.83465104163295
C           -2.71794405277958       -0.01186766685568       -0.64747798462609
N           -2.45171587465157       -0.93685678046933        0.31410715125538
C           -1.26503790282932       -1.22001227812411        0.72824018059948
N           -1.12273634874600       -1.95039999407631        1.85396862730197
H           -1.94050614551858       -2.26230250640820        2.34866449773343
H           -0.22299164210965       -2.33820140710075        2.07426279612283
C           -0.02029499672737       -0.75985240676907        0.07698400399964
C            0.97204189713496       -1.59775886564350       -0.32091886244395
C            2.22891937958570       -1.16069204083266       -0.85051516232620
H            2.76556735971081       -1.87016792922231       -1.46959609652924
N            0.78935343702980       -2.99082718395261       -0.22772153276659
H           -0.17480172176997       -3.28139356226746       -0.32223676344315
H            1.39239835220831       -3.50567347532774       -0.85418830203570
N           -3.80553961966527       -0.31758772363052       -1.42355405442999
H           -4.43334543359218       -1.00757572228948       -1.04652385620494
H           -4.22205488194465        0.46040728657806       -1.90736650005007
N           -0.86687726311684        2.91370314705767       -0.11729140198444
H           -1.60454314161562        3.37136702453905       -0.63713597298555
H            0.04245198053209        3.27126351957485       -0.38132774146593
H            4.53841447534383       -0.36689888958238       -1.64558484258611
H            4.53068039491318        1.10079443737372       -0.79854208029094
