28
 energy: -50.629864606685 gnorm: 0.000658083392 xtb: 6.6.1 (8d0f1dd)
N           -1.66987074526346       -3.43276118639340        1.65415766678588
C           -1.63598484450156       -2.37676378206561        1.20330062631731
C           -1.60411125196498       -1.07180883054167        0.67174183252150
C           -2.76783321850382       -0.31862168142731        0.78060432688804
N           -3.11267225187603        0.80234122272526        0.19866426093660
C           -2.29467712641911        1.63889522478591       -0.44344614022809
C           -0.89190409791447        1.69931319465737       -0.40002840303405
C            0.01552181418944        0.70668957036736       -0.04621823840760
C            1.35501694490466        1.07527373420841        0.24963553816640
C            1.55507840859279        2.44174656949501        0.50975733825267
N            1.76042143448087        3.55749155211432        0.71282053681852
C            2.52050339406596        0.26707437805146        0.38055739654797
C            2.67305490614043       -1.03154560029158       -0.10304709890880
C            1.65184635792842       -1.80263863858492       -0.65881654912437
N            0.36249501284934       -1.68155957499501       -0.38129588151092
C           -0.36939194328716       -0.69894934115905        0.05169729855693
N            1.95728018360249       -2.84908281988894       -1.46720605210085
H            2.90506047992519       -3.17823550615451       -1.51384090947414
H            1.21908073708563       -3.50175739576624       -1.66957774935358
H            3.67407420477562       -1.44126626225287       -0.10982066274100
N            3.61156013906175        0.85300906497332        0.93606528481008
H            3.59680660984836        1.83295500959096        1.16203055494798
H            4.49498448804617        0.37675280442814        0.91886296654697
H           -0.46524120120595        2.65374400567198       -0.68590883365776
N           -2.95018255976858        2.61387352775659       -1.11618418524988
H           -2.45630273543734        3.40792121832071       -1.48151254878542
H           -3.94912509217157        2.65796759708444       -1.01352319837885
H           -3.57483171048807       -0.76400398571414        1.35699367085411
