29
 energy: -50.335591477920 gnorm: 0.000432839121 xtb: 6.6.1 (8d0f1dd)
N            4.45073024345371        0.56359581935038       -2.36429235618657
C            3.61794384773832        0.22377805835866       -1.64977465728511
C            2.59872369531681       -0.17964623838212       -0.76305864031581
C            2.54994717761740       -1.49404118639181       -0.39133504352193
C            1.69889612320133       -2.07807202506054        0.57831381070489
C            0.48432419892292       -1.61996018426071        0.99360519445275
N           -0.14965524051804       -2.15042400432967        2.07678885312369
H            0.25059294176137       -2.95297261155626        2.53273589960850
H           -1.14286426156533       -2.01414450612550        2.16237828609871
C           -0.22444831376937       -0.50782820238134        0.32781133675752
C           -1.50939822699382       -0.64035275776204       -0.10753729601982
N           -2.16076473308382       -1.87404252460109       -0.00563123241424
H           -2.99758144442962       -1.93545077022151       -0.56992265585544
H           -1.56112588523456       -2.67804153365788       -0.12862047702429
C           -2.26946826677739        0.44381570914849       -0.69954643502519
C           -3.33671869019843        0.07987726917266       -1.54309102448646
N           -4.19628824138941       -0.24591760538432       -2.23352055646797
C           -2.06992368156907        1.78268223738187       -0.47742736045466
N           -1.29455002968521        2.32817085962752        0.46466064712577
C           -0.20489623690400        1.83367035601977        0.92948493744701
N            0.29972483174307        2.29220128043283        2.09119716231156
H            1.25086236203491        2.08819884760490        2.34140434403698
H           -0.18807628751447        3.02724911542231        2.57458689884109
C            0.54512207712659        0.72553193750081        0.27514290576449
C            1.78462975326745        0.87850094909398       -0.21239807420276
H            2.22500710347972        1.86843422625863       -0.22310770620307
H           -2.69453351917311        2.49688541606170       -1.00006639900383
H            2.05794616621361       -2.99766260046158        1.02516132700950
H            3.31197455373120       -2.14566968475260       -0.80226587612743
