23
 energy: -43.241994578705 gnorm: 0.000634234352 xtb: 6.6.1 (8d0f1dd)
N           -1.53782612767835       -3.47570620425465        1.01459556784406
C           -1.41743469134329       -2.35784474018380        0.77784508100839
C           -1.27602252427304       -0.98667030525742        0.48615727269789
C           -2.32920384108973       -0.15097765098769        0.88542856931980
N           -2.61618889563980        1.06741805167781        0.50627391351234
C           -1.80799258991256        1.79894659674798       -0.28001702068028
N           -0.49167562735852        1.80580653356105       -0.29376848392780
C            0.33751898157071        0.83874976633404        0.01284328984873
N            1.54002926521115        1.15848380817614        0.43958073191492
C            2.66224691478150        0.49680627300537        0.29398559857836
N            2.97469477339968       -0.37512666015099       -0.68890901810627
C            2.10187714591616       -1.20739890340372       -1.18864219250927
C            0.77938598905993       -1.45462068240905       -0.79591900605105
C           -0.05301606859296       -0.58101299039528       -0.11217706969489
H            0.35328445734249       -2.40410337092696       -1.09623430790054
H            2.52185703137105       -1.86678014326570       -1.94289338615062
N            3.67670542324944        0.81141777815831        1.11675255712014
H            3.55663230755506        1.55224879557225        1.78392086723494
H            4.59032987611214        0.44620854105963        0.91625079403501
N           -2.42878264672876        2.72771377015596       -1.02818320218187
H           -1.87768514865646        3.40854342006644       -1.51930738292280
H           -3.41470929493311        2.86767797159014       -0.89726078649537
H           -3.09277685386329       -0.59986877447068        1.51470573190608
