28
 energy: -55.455691524707 gnorm: 0.000630389118 xtb: 6.6.1 (8d0f1dd)
N           -5.04731234228934       -0.83215346319342        0.38400957888011
C           -3.91179927936337       -0.67259714787317        0.31040192227237
C           -2.51923910650712       -0.45765887134251        0.21532185241093
C           -1.73104311089928       -1.46033355874384        0.77093513479473
C           -0.36037787694328       -1.65488871586151        0.68760465947331
C            0.15592033437593       -2.88383160723757        1.15431710237382
N            0.57635001315997       -3.87546772269121        1.54953612289326
C            0.57798100687665       -0.76370009225370        0.10962379431154
N            1.68376675433478       -1.23003553919285       -0.39816172742544
C            2.82033006103104       -0.61350979929313       -0.71141301926401
N            3.37886397310491        0.39484563195907       -0.05205331466959
C            2.61711051109526        1.20127421412392        0.68545847882196
N            1.32726309128495        1.45736870045423        0.50897442398482
C            0.35624885117071        0.69331027300868        0.07677160324976
C           -0.82584151103204        1.29612363770812       -0.39918567527930
C           -0.68521245524138        2.63455765897564       -0.82203984411482
N           -0.59436384415660        3.71887409175583       -1.19105038658339
C           -2.12449451253748        0.74915879251279       -0.43249897965822
N           -3.09175116862227        1.46952193438410       -1.03878497266933
H           -2.87902498178537        2.38236545556778       -1.40643228004809
H           -4.05412233244824        1.18261086223278       -0.96684168247153
N            3.24767656851825        1.95221068345902        1.60439836416869
H            2.75204423456654        2.71516665476378        2.03062002624338
H            4.25167403122274        1.92898158930536        1.62646500370411
N            3.54300866209746       -1.17499463940218       -1.69617606239172
H            4.49247865515829       -0.86946574946939       -1.81622929721985
H            3.25500743676196       -2.06714208769574       -2.05809705165884
H           -2.28329626293202       -2.26064140756009        1.25281324887463
