21
 energy: -35.758523652891 gnorm: 0.000446553140 xtb: 6.6.1 (8d0f1dd)
N           -1.52066005920824       -3.17901197587945        0.27607577447074
C           -1.35111665893131       -2.04522288240299        0.21327647447364
C           -1.15712022085717       -0.65007181079845        0.16043857243756
C           -2.21879961204523        0.17908746001825        0.64069804703144
N           -2.48214549624353        1.39666237480771        0.33020916749856
C           -1.72757597498609        2.23040116984186       -0.41628148486885
C           -0.37992324236454        2.25544727907829       -0.55471076158558
C            0.51636134026342        1.20450801449201       -0.14029251488347
C            1.77639723720589        1.47049010667569        0.33128914280495
C            2.80092104451481        0.55953001009720        0.69110392886190
C            2.98485195782232       -0.71036116083298        0.22586367050705
C            2.14401320714249       -1.24433497346475       -0.79124374356000
N            0.90573117889592       -0.98529230193071       -0.94772298671432
C            0.06994504942773       -0.17930815955152       -0.28014361780187
H            2.57860636346981       -1.91522148061663       -1.52539665464917
H            3.88142833006955       -1.25217897935862        0.48573209577579
H            3.58025881245881        0.97155532680966        1.32088930520609
H            1.99020615651203        2.51330098271551        0.53151069292744
H            0.07910120690873        3.13161970134006       -0.99449346146636
H           -2.30856924169219        3.05218730837613       -0.82122000019528
H           -2.95602077776312       -0.29975296211637        1.27928236552975
