22
 energy: -38.710477677064 gnorm: 0.000548139753 xtb: 6.6.1 (8d0f1dd)
N           -2.69790834063862       -2.05072580104135        0.86719581783734
C           -1.83653586840023       -1.15070472376477        0.33167634507807
N           -2.40368676105161        0.00000026680846        0.00234640907835
C           -1.83695315939759        1.15071611262786       -0.32766989415633
N           -2.69898072852897        2.05072839847162       -0.86214220039819
H           -3.67524718633269        1.81447113993761       -0.88299991516159
H           -2.42550906315147        3.01056385996400       -0.96857610263344
C           -0.52146554078897        1.57582586386830       -0.05268874562256
C            0.51020966055637        0.71116156293395        0.23056404457169
N            1.55889386552900        1.03767306176036        0.96306259897426
C            2.78319816942111        0.59836704070209        0.96894463961259
N            3.45742124180752        0.00015914636318       -0.00138880108465
C            2.78192837676101       -0.59788725328182       -0.97096761879999
N            1.55772640565595       -1.03742285957916       -0.96331234214529
C            0.50993144314105       -0.71104617255353       -0.22943445862558
C           -0.52136598995801       -1.57577017666014        0.05510800149021
H           -0.33487979809535       -2.63864991130169       -0.01509397248515
H            3.36194645624472       -0.87482705935128       -1.84669701897591
H            3.36394378677890        0.87373060371621        1.84540924014475
H           -0.33491970390612        2.63871142438965        0.01726500589832
H           -3.67415750564750       -1.81447440838368        0.88924331222016
H           -2.42430378959839       -3.01055867912583        0.97329523028290
