29
 energy: -49.554926461821 gnorm: 0.000573606663 xtb: 6.6.1 (8d0f1dd)
N           -0.86539011678542       -3.47879322411023       -0.70012421872846
C           -0.95303030404085       -2.34822272146286       -0.49835639967638
C           -1.12629232688463       -0.96808182511700       -0.27932474124096
C           -2.45635515036645       -0.47944685916138       -0.41806322548531
C           -2.92207238010319        0.75214809413002        0.00201407879015
C           -2.19143287779157        1.86333924629566        0.45001220470683
C           -0.81410419133946        2.03539055564929        0.43033403905234
C            0.22104220899516        1.14146963429237        0.12210004817364
C            0.04950753407661       -0.30791641983449        0.11858750457592
N            1.01200110814583       -1.12191834199775        0.52641302657039
C            2.31556139615005       -0.99069428054576        0.57579448216784
N            3.10653735070764       -0.16128974927438       -0.10787761527588
C            2.68663567154199        1.03898021074486       -0.48811801722496
C            1.46452792840509        1.67986289082824       -0.21703850034018
H            1.47320501524881        2.75098834476674       -0.38676168673768
N            3.65406246389741        1.78088248562258       -1.09591515018236
H            4.49300228090080        1.29749461227144       -1.36383596449984
H            3.41286948954254        2.63230525625844       -1.56952082203627
N            2.96443516625522       -1.89983609783761        1.34591416982612
H            2.43816031002260       -2.69864100347324        1.65538542598522
H            3.95341011891755       -1.99869496882987        1.19747878628508
H           -0.48441294809638        3.04690381262840        0.64463616401732
N           -2.93865227238734        2.96243978906972        0.80464501289560
H           -3.91207281315761        2.82532852734939        1.01478164048383
H           -2.47802604173227        3.70255165017303        1.30562769624196
H           -3.99542466189851        0.89387248374413       -0.05471502234638
N           -3.36349485651673       -1.34344805447960       -0.96286146260796
H           -4.34327655489057       -1.14229209866043       -0.86625972470578
H           -3.09690434521395       -2.30667142884145       -1.08344545238297
