26
 energy: -42.372348425420 gnorm: 0.000714251897 xtb: 6.6.1 (8d0f1dd)
N           -1.31061194656421       -3.41565005515858       -1.43734820740248
C           -1.31145121695966       -2.36101953316469       -0.97856559905121
C           -1.31794432383152       -1.06415329428707       -0.43227196782481
C           -2.51502181996959       -0.40073742740872       -0.44610767040743
N           -2.85113897015995        0.77694575193855        0.08249871866525
C           -2.00091257666327        1.74047657807256        0.33607930507792
C           -0.61746479513066        1.82111842055306       -0.02542372065263
C            0.29784956604097        0.80912068214609       -0.13025729947541
C            1.62535064062039        1.16504714287880       -0.55275034231931
C            2.83147602421379        0.61483071606928       -0.23353276190902
C            3.05260977981910       -0.47299279478017        0.68102923055759
C            2.14443134110006       -1.39091864398164        1.07316481559056
C            0.79729981360031       -1.52158518384433        0.64079550252674
C           -0.02705270774975       -0.59491711346149        0.08011346146287
H            0.36768916253335       -2.50318794707669        0.80331365399083
H            2.49134515267541       -2.17958347272106        1.72984479967746
H            4.06969681878438       -0.57037672066733        1.03885554537353
N            3.97622810341762        1.21890202867532       -0.69907304414841
H            3.88523206019148        1.85718163954594       -1.47173536552313
H            4.82872195096200        0.68608376160076       -0.67162636216579
H            1.66472884228924        2.05143003486069       -1.17826980530847
H           -0.23497205143212        2.83008869483323       -0.13018683923353
N           -2.53768388948070        2.83543741503688        0.92297762077834
H           -1.99530256349255        3.66432974507851        1.07990620788924
H           -3.51997361488182        2.82893843180794        1.13232571570100
H           -3.36620223592760       -0.92626397834018       -0.87092203746301
