29
 energy: -50.351021592815 gnorm: 0.000885098613 xtb: 6.6.1 (8d0f1dd)
N           -4.50878821323209       -1.44031414898435        0.76725675926646
C           -3.44600763220601       -1.08089230404184        0.49872143935533
C           -2.15093385283374       -0.67455332933008        0.16831870120117
C           -1.31861891450510       -1.62198911767396       -0.52025695429291
N           -0.02240318843967       -1.64665937333715       -0.51713635360326
C            0.90991735341378       -0.75807848990551       -0.16085467442054
C            2.08526443235162       -1.32834075957320        0.31065162931256
C            3.37942517073705       -0.81219194144752        0.44767497972807
C            3.84475226333147        0.37997015560138       -0.11751963746756
C            3.09357411077230        1.35114867147643       -0.75414310287063
C            1.72412011156336        1.50587649769213       -0.81601864308895
C            0.69597358281556        0.66733495163124       -0.34466171334955
C           -0.55728487026876        1.25808042118931       -0.06519738419699
C           -0.60047547312313        2.66447107121960       -0.09229511572990
N           -0.69837008152059        3.81256649079457       -0.10654957552613
C           -1.78036718019729        0.66068875175030        0.37202637318964
N           -2.68527014064985        1.47455956146895        0.96709999414061
H           -2.52495524429489        2.46738487514095        0.99691537280786
H           -3.60885299614231        1.12451876466795        1.15982474704837
H            1.38707339957986        2.44770173697047       -1.23252272863950
H            3.66471843545375        2.16058499397918       -1.19247395890217
H            4.91230906172936        0.54934904777857       -0.05812265129103
N            4.28394018755598       -1.58602029990020        1.10975580422899
H            5.25929474614508       -1.35041853930748        1.07726073360899
H            4.03266655693131       -2.51647943184974        1.39281344533674
H            1.97157384265849       -2.37288389869140        0.57823948573922
N           -1.93836405023616       -2.62694078746744       -1.18162273507077
H           -2.92490488601298       -2.77498895492450       -1.05620453965218
H           -1.37294196607618       -3.36313030432630       -1.56553415356155
