23
 energy: -38.421297589680 gnorm: 0.000645524077 xtb: 6.6.1 (8d0f1dd)
N           -3.34198747375192       -1.47470758629546       -0.96078595803863
C           -2.40665061161425       -0.74374202961278       -0.29965619703545
N           -2.90180639963347        0.28526616605338        0.36495820289967
C           -2.22638246653374        1.26745847891394        0.94562128237540
C           -0.93514571812807        1.69266802018250        0.76224330121308
C            0.05186366272134        0.98818489733601        0.03441834849440
N            0.98755764043070        1.62041034299158       -0.60135482654974
C            2.14686694358917        1.21819039373684       -1.10423375445448
C            2.93468748448010        0.20611374995909       -0.62735626335509
C            2.41713532268493       -0.75686700590316        0.28667922207430
N            1.16173376794507       -1.09097501655795        0.40903482758471
C            0.03815650195095       -0.49545539533060        0.02314084720429
C           -1.07939539914270       -1.23240037917142       -0.28840767928063
H           -0.93277064531556       -2.28198624222344       -0.50891420620009
N            3.29820939236552       -1.52972949781672        0.98530241449029
H            2.91278323602821       -2.12929076729085        1.69471277318152
H            4.24330167031955       -1.21019928792486        1.09977694759222
H            3.97567716145640        0.14632387876752       -0.90691062402992
H            2.53090493757820        1.87797037763010       -1.87558298509798
H           -0.66037822086639        2.67243694466398        1.12829762652191
H           -2.86893834135580        1.88842336183114        1.56453242241629
H           -4.30638507282500       -1.23272278207758       -0.81335321962588
H           -3.11606663888460       -2.38721246826174       -1.31286132638075
