24
 energy: -42.948762780479 gnorm: 0.000628927079 xtb: 6.6.1 (8d0f1dd)
N           -1.13023116376731       -3.15992677176812       -1.01575650027128
C           -1.10823155794706       -2.06437712386599       -0.66423278716307
C           -1.11679027996527       -0.72301726018064       -0.24404141144973
C           -2.36934129233518       -0.04702669656029       -0.22028162520534
C           -2.62947908636508        1.15083433725804        0.46161918475859
C           -1.70422867030982        2.00049973338128        1.04736989214517
N           -0.42970968628350        2.13060563870562        0.77902075935777
C            0.30620035277590        1.30229147861732        0.06878971999663
N            1.24320299163516        1.72474905156471       -0.72746889514544
C            2.35071876080808        1.14841885798162       -1.15125526012075
C            3.04101243694376        0.13654705902952       -0.52368234583443
C            2.42776383143797       -0.68477262257255        0.45374953859305
N            1.12824198185224       -0.90445490102273        0.51887042717932
C            0.11739793975007       -0.17286595668707        0.13347466627394
N            3.19394736629308       -1.42276394011334        1.29371098961756
H            2.74291473440748       -2.14266588380495        1.83173309776426
H            4.18024498901931       -1.50113962121704        1.12166151768861
H            4.07055105098726       -0.05514963597793       -0.78713873931543
H            2.78952436733143        1.63555469100692       -2.01518703014447
H           -2.07867854587985        2.74639004173661        1.74114767674320
H           -3.67434480787367        1.40340241005007        0.58851661881465
N           -3.42022660819686       -0.68788099367436       -0.78701407804095
H           -4.35100551343151       -0.33325979526638       -0.65748774031727
H           -3.30550422918475       -1.62549133682142       -1.13442807252654
