27
 energy: -45.316598583396 gnorm: 0.000705376763 xtb: 6.6.1 (8d0f1dd)
N           -3.18931937836247       -1.99160342990056        1.15876368585950
C           -2.39488101040644       -1.05006356666102        0.54737276928973
C           -2.98750239992341        0.13799423272634        0.16590552804503
C           -2.35920358837896        1.15053117443218       -0.59376085929416
N           -1.08572701414825        1.43011740837461       -0.65497880671070
C           -0.03715902756327        0.73263113543688       -0.21212990852854
C            1.05174915901782        1.43998955700283        0.25979942038657
C            2.32379565380220        0.93079185644444        0.61093329006011
N            2.92034703095595       -0.15968864007116        0.17223913587810
C            2.30912502642830       -1.04718165239196       -0.63301265527737
N            1.05710410691966       -1.40461169586006       -0.68151931221704
C           -0.01461601033516       -0.73714407291479       -0.22649798224296
C           -1.08743901337310       -1.47671235826745        0.21713199645953
H           -0.88804491311171       -2.53215706557914        0.35624426070043
N            3.16629244646409       -1.74784600178983       -1.42717194875851
H            4.14195245086850       -1.70261495941226       -1.19074340836134
H            2.81307687521883       -2.58707267957922       -1.85267420029722
N            3.08439517123902        1.68798557512511        1.44979757706188
H            4.05130483405701        1.43104021798088        1.54689082078985
H            2.82206572090655        2.64094025459597        1.62688804264433
H            0.88293641687128        2.49444397327292        0.43824994518304
N           -3.17088543372436        2.06649212084674       -1.21265486283215
H           -2.70928521080998        2.69629007366082       -1.84728765626100
H           -4.11329463899394        1.79911564217703       -1.43592378852961
H           -4.04228531238761        0.26597012166047        0.37288609652870
H           -2.72962678839188       -2.76004691116668        1.61632177605462
H           -4.04958095693840       -1.67816412324405        1.57463891486958
