31
 energy: -54.562389731465 gnorm: 0.000790278153 xtb: 6.6.1 (8d0f1dd)
N           -2.69101825920620       -3.75775200021969        1.73096946267291
C           -2.34492914815317       -2.79688938290542        1.20677581242556
C           -1.90255143665009       -1.61921262883855        0.56449135599737
C           -0.59282450495015       -1.69366623633231       -0.04060897130564
C            0.24958993040977       -0.66520618815460       -0.25893753183003
C            1.51885336577564       -0.89991651562403       -0.93301476762143
C            2.71956465958068       -0.41955464351396       -0.55094538909831
C            3.84933979224210       -0.78814498988462       -1.32149215744128
N            4.76721267306288       -1.09493509006327       -1.93714031104260
C            2.99546064063367        0.39412687978478        0.63368423365538
N            4.27918488500828        0.31966603426366        1.10517529735127
H            4.49471785960061        0.75718377734705        1.98313498213422
H            4.86905289653584       -0.43978834068693        0.81351258464581
C            2.10588817273580        1.25758256177643        1.18431763944179
C            0.78257068606021        1.58138574572718        0.72236664461441
N            0.37063177869593        2.88361397235629        1.00432325194067
H            0.89960107190699        3.34066624550199        1.73093441220124
H           -0.62452227672839        3.01583029323048        1.10770396567721
C           -0.05017112663266        0.73324477654083        0.05768892680657
C           -1.32261525714437        1.22048001469632       -0.50550723084671
N           -1.22733409442136        2.29017188475943       -1.32662210088695
H           -0.36263815770572        2.79858211816612       -1.38404144825689
H           -2.05519312294258        2.67786942345586       -1.74916781102110
C           -2.54633335798419        0.65105328439581       -0.22151105827507
C           -3.69714849372674        1.34599401949185       -0.64131110548939
N           -4.61630151647608        1.94847954609190       -0.97956241602902
C           -2.76811894440525       -0.57310471083966        0.48774545736382
H           -3.76120492238158       -0.70295152141567        0.90100602869745
H            2.46883293148692        1.86338567308380        2.00667424189342
H            1.48578113720972       -1.53896351572240       -1.80904998844567
H           -0.25624485323326       -2.69236814316806       -0.29076589262836
