25
 energy: -41.857126200519 gnorm: 0.000792793979 xtb: 6.6.1 (8d0f1dd)
N           -4.23285114960903       -0.36988678604025        0.74350678427087
C           -2.95611157122019       -0.05057308647298        0.32305116516252
N           -2.58095474749470       -0.78645895877591       -0.77065478324598
C           -1.40430746167298       -1.06759592825120       -1.14233598423070
C           -0.14252291647257       -0.74471254817182       -0.46763811405285
C            0.85475188350458       -1.65558473842411       -0.35243649638586
N            2.03150377193784       -1.52860007961560        0.31050584634028
C            2.62116292557499       -0.39110639174961        0.50071206063976
N            2.42528204585502        0.77747691260199       -0.17669447775299
C            1.27701210148725        1.21557125975980       -0.54970922999499
N            1.22401610259150        2.25307145651663       -1.40869183051875
H            2.07590636837846        2.61692932143759       -1.79873464736660
H            0.34064423127359        2.65204957300264       -1.66848446738074
C           -0.02817816950572        0.66397542420119       -0.10512475735240
C           -0.99014670808123        1.45210313819093        0.42294221238779
C           -2.30209212806250        1.04400207445065        0.80628362939982
H           -2.83237697076041        1.68391145720444        1.49842667183571
H           -0.73062914471900        2.48150436938230        0.64332878876124
N            3.67298530209247       -0.35781886687379        1.37051788501825
H            4.33137475984831        0.39322339132260        1.25279572623778
H            4.03405661944424       -1.25293484371206        1.65422288165353
H            0.67728557715525       -2.66657290294654       -0.70469944218493
H           -1.33339821681204       -1.61639795313047       -2.07968574390248
H           -4.55517189874803       -1.28237063911861        0.46606903483519
H           -4.49333009478501       -0.07560935408722        1.66907889562781
