27
 energy: -46.105931599444 gnorm: 0.000635592657 xtb: 6.6.1 (8d0f1dd)
N            0.00885250908418       -3.60990374038002        0.95268971640434
C           -0.30750975330261       -2.52904719011358        0.70523329186968
C           -0.72273379683970       -1.22279644721590        0.40452514702409
C            0.32765937218149       -0.27654776730905        0.20504627451938
C            0.12486323886549        1.15619695661635        0.40720061437445
N            1.06773839864787        1.84133077352059        1.08283977868991
C            2.34955156880490        1.74754726452242        1.06346254687744
N            3.15612809754659        1.10963454347323        0.22154652698426
C            2.76778406870067        0.00319023477543       -0.39405668895811
C            1.56634793208270       -0.73070412866185       -0.20995920933104
H            1.61456291642894       -1.76897403980353       -0.51746304842178
N            3.69465350354249       -0.53201888383455       -1.22606711675904
H            3.60018855839986       -1.47881634450501       -1.54740065216754
H            4.60287377885471       -0.10118206203398       -1.23983108084766
H            2.86877091603843        2.36022975486090        1.79713545186678
C           -0.98513181874965        1.86081264224509        0.01269244841744
C           -2.24542570849794        1.39051236148115       -0.41376807200898
C           -2.74899039494030        0.11042755474628       -0.24664167478541
C           -2.10990623749250       -1.03467035375984        0.24734448526648
N           -2.91492317156939       -2.09477608067456        0.53814757244086
H           -3.87985425543721       -2.07509464860911        0.26165765591697
H           -2.49871373981934       -2.98683551218485        0.74598776855101
H           -3.79784315927510       -0.01926965233297       -0.48930265297126
N           -3.07237684411288        2.32283042857045       -0.97180067646860
H           -2.81231807188866        3.29174281225773       -0.92131485658370
H           -4.04956878724344        2.11404091491937       -1.07811658493852
H           -0.87919339000552        2.93711193912403        0.07316185083476
