25
 energy: -48.245677215194 gnorm: 0.000954903894 xtb: 6.6.1 (8d0f1dd)
N           -4.35156955549975       -1.31210469361598        0.22108746472752
C           -3.38818064491224       -0.68826341042877        0.23854388621522
C           -2.22648973510133        0.11388674355916        0.27591279322613
C           -2.35074745053790        1.33620568707048        1.00709314167063
N           -1.69481022676564        2.42716093017429        0.82359655625906
C           -0.68329049321518        2.59538690535161       -0.03456643225281
C            0.26533998900614        1.67941413082629       -0.39211479406610
C            1.33746585402821        2.11417116850217       -1.20316606876971
N            2.16508525427859        2.46386911323261       -1.91668600164256
C            0.23803532537957        0.24514629322801       -0.09445800951668
C           -1.04890523909416       -0.42124224796893       -0.24233161223791
C           -1.10647692238953       -1.62846270536918       -1.00498869391099
C           -0.11607460878750       -2.55561224040852       -1.15545559357892
N            0.97985096779641       -2.72969062936667       -0.41557918407370
C            1.59577178062534       -1.84077133933730        0.30182676466998
C            1.42227975986076       -0.39174722376960        0.16645352776370
C            2.57640725632008        0.36862461088649        0.45542235028777
N            3.53876715542269        0.90107777912099        0.78532292875545
N            2.53221668291904       -2.27296656402991        1.15954097104049
H            3.16180219496050       -1.62909726611577        1.60897061439123
H            2.72518156984188       -3.26017757728892        1.19253243385139
H           -0.27536868573196       -3.36559039274356       -1.85819320809146
H           -2.04450833681096       -1.81515384656310       -1.51166470347352
H           -0.56608083325626        3.61823149679582       -0.37552643223757
H           -3.14297721623765        1.38913409155844        1.74735644969265
