25
 energy: -43.452896841630 gnorm: 0.000277919208 xtb: 6.6.1 (8d0f1dd)
N           -4.29687955001319       -0.18751375049468       -2.31924147571463
C           -3.48980969398261        0.10329517363051       -1.55816577259212
C           -2.49393103811412        0.43917307902783       -0.60971821143481
C           -2.51157272991252        1.68197878885911       -0.06580949957593
C           -1.65881095023105        2.15690401628394        0.98746992184661
C           -0.41938990669293        1.73752166204571        1.28145708388671
C            0.34315259718171        0.73583092271506        0.53056218132902
C            1.64127664001266        0.95665369325237        0.21516747835532
C            2.50673120852037        0.07215364040376       -0.51280869878463
C            3.62344277369500        0.66263613150147       -1.14066436745124
N            4.52665852719761        1.15544741163970       -1.64964169144110
C            2.35531573288494       -1.28810009216107       -0.60503156689863
N            1.54574674249990       -2.03600562592568        0.15429089290767
C            0.43152677939698       -1.69116745174386        0.68445795143705
N           -0.07866191947143       -2.41892492548834        1.69818721181579
H            0.43779944849340       -3.21732081745331        2.02543981393502
H           -1.03529361058511       -2.30289675272188        1.98004406648170
C           -0.37084363635158       -0.50415666182222        0.26390106858730
C           -1.61254735567366       -0.64433412489469       -0.22396405325216
H           -1.99756854711135       -1.64257189977927       -0.39558471205433
H            3.04085214906528       -1.86347901161223       -1.21444108929247
H            2.05171543988178        1.93250887039124        0.44544306322851
H            0.10398043985927        2.20088075773398        2.10918388888452
H           -2.07165278273956        2.96997376084945        1.57171227155658
H           -3.28904812770885        2.36291388386376       -0.38911519625965
