28
 energy: -45.795857764819 gnorm: 0.000784195616 xtb: 6.6.1 (8d0f1dd)
N           -3.53251543923398       -1.43348891708750       -1.67450317196817
C           -2.75085470563394       -0.85816954514596       -1.05316666179255
C           -1.79344683770646       -0.14492439733302       -0.31382969185016
C           -0.55639801842946       -0.86348133567077       -0.01594905664103
N           -0.68998681579333       -2.25942162880244        0.06943337184220
H            0.13177501566953       -2.76720183605625       -0.22932121995199
H           -1.52773488391839       -2.61184060397201       -0.37378259071958
C            0.63942450049121       -0.27907950055600        0.21246174130785
C            1.80168335647987       -1.08831488326996        0.65665354636702
N            1.60157092950925       -1.81075855748789        1.79720997034123
H            2.32819744276988       -2.43297847981343        2.10869446541792
H            0.65569956971466       -2.03408693441203        2.05759990553803
C            2.98191466643289       -1.10003408632944       -0.01363495422130
C            3.31341443647033       -0.20317048629006       -1.07758424653858
N            2.92809835976595        1.00945118303999       -1.24104263841976
C            2.03666235882635        1.65100369307844       -0.44378569195560
C            0.93363578783819        1.15368100399989        0.16710485970863
C            0.03966752776032        2.04105283714758        0.89376604137434
C           -1.29830579565133        1.98394309311301        0.91564780533062
C           -2.14930096221708        1.10166304894851        0.14618363873010
N           -3.42188304567691        1.56005510926867       -0.04554691530737
H           -4.02351591986280        1.05587757114179       -0.67629079588709
H           -3.60871517321675        2.53904228795809        0.08296494795222
H           -1.83739015677325        2.72778504614945        1.49018004351015
H            0.52194714607007        2.83392480129114        1.45494268809104
H            2.19942025563529        2.72403961781364       -0.42097514680383
H            4.06160633351081       -0.54274247040370       -1.78958568312961
H            3.73652257426574       -1.82290305031736        0.27240577977450
