32
 energy: -63.132781793266 gnorm: 0.000905442127 xtb: 6.6.1 (8d0f1dd)
N           -5.10210963214474       -0.46259997613829       -0.36270611736783
C           -3.97078305263687       -0.30010118960153       -0.22524126162593
C           -2.58836410160706       -0.09752136198228       -0.05812258934315
C           -2.09360778658163        1.13809950867252       -0.52431156910448
N           -2.94612700991211        1.93840680547459       -1.20097654046097
H           -2.66822188453511        2.87725962115092       -1.43399002839505
H           -3.91319161338808        1.67780169643236       -1.30105830370731
C           -0.80524908276307        1.66249929019680       -0.25156814552513
C           -0.63837566816495        3.04861976368504       -0.45685109803364
N           -0.53480197344277        4.17733572690696       -0.64755745473126
C            0.34783521122061        1.00014790048192        0.19417592922939
N            1.30506744377342        1.74671379420497        0.70573768001883
C            2.59800507014251        1.53702953015149        0.79457187292100
N            3.35190253115559        0.82940194451497       -0.05498801984324
C            2.91696002523036       -0.23706220508351       -0.68605092721607
N            3.75204133759688       -0.74962925255936       -1.60638575131433
H            4.65145890794837       -0.31494409151523       -1.72002103192000
H            3.57414078036613       -1.65003096711657       -2.01883132690693
C            1.69966983580278       -0.96422612108776       -0.40753854861601
C            1.69839724453568       -2.29713533127924       -0.86115361808343
N            1.75139098257702       -3.34658425545733       -1.32946326106098
C            0.50983346477656       -0.45218910837195        0.12201973132424
C           -0.49458545564964       -1.33690402421082        0.58347266535619
C           -0.03658784863353       -2.56010349983115        1.11484759257618
N            0.29551326985767       -3.52925418520714        1.63754166139401
C           -1.89209687719359       -1.14922105314742        0.59471337313615
N           -2.64325036823844       -2.10335693422357        1.18745421904860
H           -3.64526895499999       -2.08534457256193        1.09721244580487
H           -2.20251513740915       -2.93426396053981        1.54648776638297
N            3.26332795215513        2.22248772288330        1.74121995693398
H            2.76899976572642        2.92481175653267        2.26286837793765
H            4.26620279383662        2.25164414822620        1.69139273868996
