30
 energy: -50.049552878499 gnorm: 0.000796118016 xtb: 6.6.1 (8d0f1dd)
N            3.87595068445549        2.66022397850311       -1.72503035447726
C            3.31139717588764        1.80843378073996       -1.19939618767211
C            2.61081723981931        0.77528956213649       -0.54490050101672
C            1.26324463918462        1.09198562487544       -0.14210154008801
C            0.27599245717959        0.21822521588650        0.13333817105895
C           -1.00255083271269        0.71531351324166        0.66902031315526
N           -0.89808373342850        1.50932154364543        1.76587358324795
H           -1.72115572395273        1.94839836545862        2.14476555506294
H            0.00195126106588        1.87752935315736        2.02015918094394
C           -2.22731644338376        0.39599327181796        0.14117760553339
C           -3.35420756510027        1.02644020704921        0.69762673137084
N           -4.27738654167905        1.53712781987507        1.15873608375722
C           -2.49247117259664       -0.51833227687849       -0.96253223236596
C           -1.73938619483790       -1.61442892502770       -1.24602812940266
C           -0.53617657759717       -2.01812569875382       -0.60152582351548
C            0.37297375206617       -1.23593610732964        0.02078208118452
C            1.52777182071560       -1.84519090908886        0.70480423760457
N            1.22783491793069       -2.90987919166670        1.49761362474714
H            1.92688642987743       -3.29633214572960        2.10747859152301
H            0.26623833670481       -3.15051428418914        1.65849985279092
C            2.82463036201813       -1.46589308017797        0.51946239194555
C            3.29748833466245       -0.36364312551370       -0.22793804049421
H            4.34693987612723       -0.39101374458240       -0.49634974035219
H            3.58559338416109       -2.09942765368019        0.95885535912278
H           -0.30127226069976       -3.07271587268248       -0.68715574012332
H           -2.11921531228402       -2.28835658267936       -2.00313844930491
N           -3.62268535767672       -0.24045730041092       -1.69817567868973
H           -3.98007041187075       -0.97647584502940       -2.28404042772656
H           -4.31501433752388        0.36254075274591       -1.28406639914038
H            1.03904436498763        2.15226442198714       -0.09467046988067
