28
 energy: -45.019062007559 gnorm: 0.000487077869 xtb: 6.6.1 (8d0f1dd)
N            3.14710650394127        1.96915389555996        1.19845497565486
C            2.36295839059339        1.03062523958299        0.56429571285406
C            1.06553981360371        1.46828882708609        0.19881693541347
C           -0.00829947717442        0.73335818213210       -0.24431910663169
N           -1.06604707965830        1.41291349009150       -0.72278797060697
C           -2.33397926730391        1.15070666729204       -0.60546514387780
C           -2.95094810981305        0.16121210668015        0.20122646057230
C           -2.36286677456469       -1.03039452577478        0.56506429704228
C           -1.06547417917652       -1.46827106506494        0.19974840783512
C            0.00833358582485       -0.73359881595587       -0.24389222261312
N            1.06604718802674       -1.41343287718006       -0.72204012870043
C            2.33398771382093       -1.15115774509098       -0.60496034481539
C            2.95101389877582       -0.16119324215706        0.20111061189545
H            3.99648937104128       -0.30686897820369        0.44013322004323
N            3.16491550870353       -2.05152753772904       -1.22730632434195
H            2.71721963189028       -2.64949522738895       -1.90225503607757
H            4.10460203326709       -1.76123632648215       -1.43554305548879
H           -0.87801494683597       -2.52853529221866        0.31787666126717
N           -3.14696980195713       -1.96855340900387        1.19982614264384
H           -3.98637307343056       -1.64226162235416        1.64834276891053
H           -2.67342127856553       -2.72889096030001        1.65756051235714
H           -3.99640659069727        0.30702715461499        0.44023843938396
N           -3.16495137240117        2.05071366956114       -1.22827659567733
H           -4.10465256254295        1.76030090873360       -1.43627762747794
H           -2.71730346854675        2.64828791651941       -1.90360548014413
H            0.87808897305555        2.52862172875034        0.31634056991502
H            3.98654165065218        1.64312353709302        1.64710203320544
H            2.67359045487320        2.72975791970719        1.65578006575836
