28
 energy: -49.848008597425 gnorm: 0.000561718513 xtb: 6.6.1 (8d0f1dd)
N           -1.12843898157683       -3.48173881426595        0.57728990689529
C           -1.09351241537401       -2.34559253494884        0.38999375684235
C           -1.11939933167475       -0.95709927554775        0.19064848932660
C            0.07361957935003       -0.35869712531828       -0.24874865033150
N            1.01909668956577       -1.15873933839958       -0.70044489543633
C            2.32588396475421       -1.03345550165425       -0.69608039518025
C            3.08168363571570       -0.16064381244411        0.10820711057978
C            2.62935903645354        1.04639075972642        0.62053693078575
N            3.49063176745593        1.76935908586423        1.39815229927957
H            4.45763914639650        1.49810990335774        1.43341607312347
H            3.27897539556816        2.73337707962792        1.58497583491126
C            1.38515060588902        1.65444619583286        0.34247112356868
C            0.22995171214181        1.09989686175557       -0.16963716492182
N           -0.72931842306147        1.92785288695043       -0.59602969456051
C           -2.01708228765068        1.71593112469299       -0.63909308666471
N           -2.76364560953414        0.87672797318239        0.09944645024057
C           -2.33828397342484       -0.28524133673895        0.53717471538170
N           -3.20064604324189       -0.94830303333335        1.34279565497627
H           -3.04364275300479       -1.92140343427251        1.54397994199515
H           -4.12189339028100       -0.56252860732085        1.45484602895801
N           -2.73891754676634        2.54400448988930       -1.43435560875262
H           -2.26997925325910        3.33528270652940       -1.83763487964764
H           -3.73221367987598        2.57859878734560       -1.29094033159312
H            1.30925711930855        2.70827616470505        0.58111308756157
H            4.12023968541349       -0.41685823887194        0.27377159320262
N            2.98576127962197       -1.91784949265676       -1.49686678970967
H            3.95708012767214       -2.10378725267657       -1.31842773455088
H            2.43348484418718       -2.66585919971547       -1.88213339938257
