27
 energy: -51.716917893306 gnorm: 0.000997544017 xtb: 6.6.1 (8d0f1dd)
N           -5.79774702369434       -0.73546643629323       -0.12216175872422
C           -4.65440511888175       -0.63959362488818       -0.11868997524018
C           -3.24405088856392       -0.52935554303518       -0.11856878306080
C           -2.71408572002588        0.53680091317032        0.60399639236408
C           -1.40056932551233        0.98269162298548        0.63918833552909
C           -1.15270963938182        2.21270670787076        1.29073280597231
N           -0.94784826977291        3.20208093702046        1.83455149644547
C           -0.26537115026524        0.38042542341594        0.03207931317673
N            0.73462403725852        1.15048020549262       -0.30233229550837
C            2.00229261237533        0.92271562817595       -0.59188381963380
N            2.60837467222211        1.85485613995229       -1.35242710740936
H            2.09617172135387        2.68850214003592       -1.58385934907846
H            3.61048018831211        1.85270452764371       -1.44006729037030
C            2.76384520936586       -0.14485803606354       -0.04901788373903
C            4.15872145150085       -0.05712919845479       -0.01566693459275
N            5.30767515932113        0.01059919673276        0.01072421723858
C            2.12085443684359       -1.30170883527977        0.45986273788729
N            0.90907708216724       -1.69803157020493        0.10675640822886
C           -0.17837214009540       -1.05941353091590       -0.23411809285882
C           -1.21435264608046       -1.79190127591679       -0.85739814678622
C           -2.55489603280680       -1.52354790090047       -0.84216735355550
H           -3.19166111428516       -2.21906509954353       -1.37631671824810
H           -0.89073922599183       -2.70596524074308       -1.33726576595836
N            2.81104421199311       -2.15451320920815        1.24104971189010
H            3.78918231067988       -2.00065337465219        1.41537277179694
H            2.39015474394564       -3.03091352134551        1.49423935657291
H           -3.43193552859115        1.15330462385707        1.13408197757000
