31
 energy: -58.613332083906 gnorm: 0.000753968172 xtb: 6.6.1 (8d0f1dd)
N           -5.59423592240779       -0.61621979139301        0.30016836234697
C           -4.45742356990739       -0.45311934629878        0.20532379438711
C           -3.07403342380768       -0.27644870216725        0.08332242094108
C           -2.48083618159822        0.85205968891306        0.68414794680815
N           -3.27727334911735        1.65845424382576        1.42763202076542
H           -4.26571718944370        1.47843937646752        1.47733619157942
H           -2.93537815317349        2.55089048755551        1.73618132942049
C           -1.15451869216005        1.28404772545283        0.48149873741333
C           -0.05705043382773        0.57393055752147        0.03231347672207
C           -0.11502928714292       -0.89535098047834       -0.04620997290990
N            0.80708164716599       -1.65738649110038        0.48403774799856
C            2.08287798896013       -1.44740717641069        0.70835321563757
C            2.89579061025852       -0.49896864388031        0.02692709407910
C            4.27386769523432       -0.74928029189018        0.00314320721691
N            5.40527265415942       -0.96720720108429       -0.00704808972209
C            2.43248098176381        0.71254012241496       -0.53408190182469
C            1.12906733109034        1.24121362735401       -0.36889046772543
C            0.97956790956088        2.60295383208759       -0.68544367087881
N            0.87022319184791        3.72167858026735       -0.93584185235798
N            3.33841760633914        1.47825141631037       -1.18851801551640
H            3.09370523515182        2.41368129420323       -1.46660043188094
H            4.30831595859495        1.21086582212156       -1.18662802427961
N            2.67076759961508       -2.28892543058887        1.58681420691645
H            2.12521626151162       -3.05619472036995        1.93859695187268
H            3.67383625903766       -2.32834159802133        1.65074522800700
N           -1.11045339718743       -1.49859485922281       -0.65423971935486
C           -2.37453848671021       -1.18976955577823       -0.76540580968170
N           -3.07812587315230       -1.86656796741410       -1.69833976211777
H           -4.08285178284256       -1.82582552876314       -1.69818275573610
H           -2.61545338083908       -2.61061258011209       -2.19067847348973
H           -0.97386355515746        2.32084562815781        0.74274054667961
