23
 energy: -40.006857265779 gnorm: 0.000336152875 xtb: 6.6.1 (8d0f1dd)
N           -5.02980204040900        0.06529051979257       -0.66046598959268
C           -3.90309579811317        0.06039309436711       -0.44532686554608
C           -2.51263757154772        0.06426944723237       -0.18333932627001
C           -1.76299702901513       -0.93519849016712       -0.74281109920681
C           -0.39016605669468       -1.19330559192528       -0.52376652045474
C            0.55402567348396       -0.31796688528833       -0.08131821479367
C            0.34667585317989        1.11923696268127        0.11874716609279
N            1.14090050628165        2.02018414025171       -0.31304099704233
C            2.37034051714180        1.97119101691631       -0.82194911027753
C            3.34000125995854        1.08319293084243       -0.44574403438099
C            3.07896237553049       -0.12818750406900        0.22967888043725
C            1.87081847128560       -0.76638343599417        0.35329071632782
C            1.85867447556073       -2.00558599089419        1.03194063829264
N            1.84901972755245       -3.01993297433567        1.56916882378168
H            3.93863510872108       -0.66340149482623        0.61565006839288
H            4.37044701289815        1.30979603313118       -0.67597164490027
H            2.61337966381640        2.81705119080271       -1.45286182511777
C           -0.80936977604595        1.53451540500395        0.89384621046514
C           -2.06294352978547        1.07871938762503        0.73380102206142
H           -2.85013955967038        1.54480069956389        1.31421736200414
H           -0.62502843309543        2.33767657505251        1.59441430903454
H           -0.06013056405504       -2.19803572457736       -0.75833424272447
H           -2.29485592217916       -1.67025641378611       -1.33489177068317
