27
 energy: -51.709186901167 gnorm: 0.000764829043 xtb: 6.6.1 (8d0f1dd)
N           -5.68729346959837       -1.14382182761226       -0.39738746316697
C           -4.58514711461599       -0.88591549546602       -0.20641400084238
C           -3.22647873357566       -0.59572543431843        0.02732508078458
C           -2.65827069160760        0.49840641861664       -0.60786619906509
C           -1.38661434950148        1.04456691060869       -0.40696521739831
C           -1.15190271357607        2.31388866829828       -0.98578863541587
N           -0.97442413417048        3.34383658116008       -1.45835330324537
C           -0.26114328610153        0.46092014007716        0.22278109113934
N            0.75564418194300        1.23211067061042        0.52532707055582
C            2.04092817012228        0.97840642585947        0.58724400029212
N            2.79330686855624        1.89184059709729        1.22547063756396
H            3.79606798207024        1.86985901188935        1.14576224433029
H            2.34302856547024        2.72718704248743        1.55924950722922
C            2.69375569331749       -0.10948610237948       -0.07348392167981
C            4.05347041318956        0.05503492118612       -0.37251723891184
N            5.17151412661061        0.19354269121488       -0.61007580352902
C            2.09972083753810       -1.36138882640722       -0.33173305616968
C            0.81552552301554       -1.76266826763528        0.10324863939038
C           -0.25537925620168       -0.98234463138987        0.47488899343287
N           -1.28504378908344       -1.54702481445961        1.11794243311148
C           -2.54990397082715       -1.37076551710659        1.01204427257452
H           -3.15586261748892       -1.91608978273260        1.72912636971240
H            0.63817794636440       -2.83085144969141        0.12110742504668
N            2.86062730403073       -2.30556172887144       -0.92419537370123
H            3.81658354252075       -2.10850165900332       -1.16815057025966
H            2.50854188221845       -3.23774514374185       -1.04811320712968
H           -3.31196571481883        1.07008097231126       -1.25803378755027
