24
 energy: -38.929873442328 gnorm: 0.000584759696 xtb: 6.6.1 (8d0f1dd)
N           -4.98302772148751       -0.78350697747821        0.96371439921137
C           -3.91341978431405       -0.51521633366207        0.64079743912501
C           -2.59972226734286       -0.19569803877898        0.24261906973981
C           -2.07980656648807        1.01038831797394        0.63351346099807
C           -0.83598365396079        1.56208735024716        0.27615224068381
C            0.30681806587253        0.95307801682679       -0.18010779054282
C            1.40467027414189        1.80412860720288       -0.57819842978695
C            2.73343406303866        1.54657842090394       -0.51854430415912
N            3.39216752961491        0.53476020536934        0.07834196548399
C            2.88367226812057       -0.63614429053522        0.31918447165851
C            1.62396051145877       -1.16093968493149       -0.16101453839668
C            0.46965532234383       -0.48098089972620       -0.36849285683346
C           -0.65398879565084       -1.23367086266731       -0.92129894572086
C           -1.96259796211763       -1.12828734098328       -0.64722315534663
H           -2.63428814866932       -1.83618575059859       -1.11876584375794
H           -0.35454987665927       -2.00685041392539       -1.61950517038967
H            1.60296707574021       -2.23431040478072       -0.31076201349216
N            3.67635272929137       -1.50165827780628        0.98924046796993
H            3.35906934165894       -2.42091280109196        1.23476228670559
H            4.55801723736284       -1.16681709166011        1.33561836767725
H            3.41386244138005        2.30719978619946       -0.88846647601446
H            1.11135284036231        2.77966509833246       -0.94628804407235
H           -0.75015370453434        2.62876130848808        0.44855715553514
H           -2.72915560385776        1.65162864029036        1.21852799202068
