25
 energy: -48.251217894469 gnorm: 0.000874669568 xtb: 6.6.1 (8d0f1dd)
N           -4.03151636672580       -1.34356507581797        0.63098541798635
C           -2.89280793441625       -1.37483690708467        0.49064000966410
C           -1.49194201795228       -1.41733285413154        0.32853455942926
C           -0.81255320477071       -2.59424192009582        0.73449852725758
N            0.32876492727124       -3.03374905605928        0.31730294656319
C            1.21192608682594       -2.40241285126648       -0.45259878234804
C            1.44616074117191       -1.05025643494421       -0.53301477260449
C            2.57793370566467       -0.60520681532600       -1.24986591656625
N            3.45708499134776       -0.25151357524260       -1.89719148635450
C            0.56511160836669       -0.02469111054075       -0.01020472711645
C           -0.87657139448167       -0.24128652556003       -0.11593977182851
N           -1.62612713693786        0.70566088856281       -0.66442004801887
C           -1.61355546364086        1.99542983354078       -0.57024138125630
C           -0.89132873214812        2.72362322214136        0.45590984658279
C            0.30843311332620        2.31700777692977        0.91854865006401
C            1.05192148664129        1.15434885512940        0.51251238376345
C            2.43202568399615        1.22105193883537        0.82537123358334
N            3.52845223202683        1.30757318875980        1.14977742388193
H            0.83709408408127        2.96856181279259        1.60389535269798
H           -1.29388305773228        3.67588743886558        0.76797688944253
N           -2.35166037254991        2.69735574817845       -1.44236344207210
H           -2.87793746503725        2.20430779223208       -2.14374165060918
H           -2.45927426098417        3.69121242884931       -1.34948029301275
H            1.89743367458684       -3.07098777970542       -0.96308467408283
H           -1.34772598882962       -3.27051585474279        1.39427381425483
