23
 energy: -39.201740242160 gnorm: 0.000995365017 xtb: 6.6.1 (8d0f1dd)
N            4.00564012797740        1.67105468218622       -1.60190907528535
C            3.22965155462806        1.01403281721235       -1.06953194610900
C            2.25808173499644        0.21898237500807       -0.42460068961072
C            2.45362545725826       -1.13519796465099       -0.37046405387490
N            1.81246450080847       -1.95309747178885        0.48292586865509
C            0.61165865950682       -1.89035252513065        0.86982933055917
C           -0.44047631364147       -1.00329513653591        0.32986551377678
C           -1.64049255116371       -1.47408554245020       -0.06245560232530
N           -2.66815756009481       -0.78390308567969       -0.62682878383463
C           -2.97224163514508        0.43338269826177       -0.33878142334667
C           -2.37845511623884        1.26677788835390        0.71198207889642
C           -1.09273804499293        1.24969694699583        1.07308895035440
C           -0.06501182639662        0.40119639609485        0.46354091822129
C            1.15289320474252        0.92000502368488        0.17386685553683
H            1.29626035251300        1.98414155383726        0.32018797942421
H           -0.75502540778560        1.93163413905321        1.84564245666652
H           -3.05662883937107        1.96244314106767        1.19004056189541
N           -4.04357624471034        0.97430817556203       -0.97683297365403
H           -4.21949257948619        1.96103928474827       -0.92264604782634
H           -4.41577212687003        0.46284472262220       -1.75818621890636
H           -1.80141825657911       -2.54648673564233       -0.07397899103555
H            0.33308716236269       -2.54120824865866        1.69428257924239
H            3.29259562588236       -1.58912945975136       -0.88115440121970
