28
 energy: -56.230592209328 gnorm: 0.000949147354 xtb: 6.6.1 (8d0f1dd)
N           -5.79541982642083       -1.12637575530891       -0.36052594563296
C           -4.66244095416786       -0.95466317670404       -0.30909232573807
C           -3.26635017635765       -0.75565417355809       -0.24530774376992
C           -2.45023733840115       -1.52890841559436       -1.08599759242507
N           -1.18643458933135       -1.75549613647138       -0.90025146811925
C           -0.27203480860738       -1.17906350935397       -0.17196270128343
N            0.67704044564144       -1.89968276091293        0.37851933247498
C            1.93559199486502       -1.60503119680412        0.57690724976204
C            2.65748887758065       -0.57894883022480       -0.12861763648609
C            4.04301287922454       -0.77137998260023       -0.25971637854395
N            5.17637362706241       -0.94300268625730       -0.35790746028857
C            2.11326639468899        0.61976187025870       -0.60389102427567
C            0.77097171132523        1.06988713976682       -0.32302017735880
C            0.55170893624327        2.45541777499469       -0.49607383020900
N            0.41228880017429        3.57438186513109       -0.71185712565225
C           -0.31463003417723        0.28338289099816        0.01929391517482
C           -1.50244352430251        0.79247493986627        0.62552602069427
C           -1.32613154027839        1.92592488027819        1.45698574374376
N           -1.18658416049467        2.80982459199711        2.17393589734270
C           -2.78353204519449        0.26067321798236        0.59036731331139
H           -3.52399194191264        0.78030372123274        1.18812510605991
N            2.91626576562853        1.47852314435954       -1.25931974972624
H            3.89403995905070        1.26544032039946       -1.37220734750517
H            2.58825973669918        2.40142475100199       -1.49346542453481
N            2.61831214157000       -2.39967036866899        1.41507642365554
H            2.14154520188288       -3.18256863502840        1.82895860308302
H            3.61946586946782       -2.33183683475695        1.48664554289864
H           -2.90048521435781       -2.06570991512290       -1.91325203345223
