30
 energy: -49.244149034858 gnorm: 0.000656747108 xtb: 6.6.1 (8d0f1dd)
N            3.89721609128584        1.54077734373829        1.86122588969659
C            3.14685442013787        0.88959012222991        1.27954385054161
C            2.20715999163715        0.11723706340997        0.57335728075350
C            2.50262588052819       -1.20358605134310        0.37913068094348
C            1.75244302135270       -2.17115946235403       -0.32130738959042
C            0.40865871953302       -2.14887562190089       -0.56214894055847
N           -0.18480000064094       -3.16128130462328       -1.24817038765483
H            0.37624809313473       -3.83695739752592       -1.73686559282476
H           -1.16507696113593       -3.10592910052672       -1.45772074825071
C           -0.49744820230437       -1.11396516723236       -0.04927596631508
C           -1.66535674195902       -1.45012145112567        0.54266039261703
N           -2.59748656936232       -0.63816757998841        1.10391878758095
C           -2.89761067705096        0.54326966870451        0.67672883474008
C           -2.40285905943781        1.20583980493809       -0.51122562077695
C           -1.15711145493525        1.04851686078602       -1.01128887712180
N           -0.78550635792739        1.55485052204888       -2.22898504594773
H            0.19733941576838        1.71100544883328       -2.37857127526619
H           -1.41733556388982        2.18744333535118       -2.69202307993786
C           -0.10929943745166        0.27436890640241       -0.30687210258090
C            1.07581974418453        0.84336219662861        0.00990679740861
N            1.30601598522184        2.20117180899009       -0.26782834295116
H            2.10630975440210        2.57912174787449        0.22117904181730
H            0.48971356109737        2.78725261088278       -0.16037009891245
H           -3.10008417898337        1.85769401210831       -1.02352850817734
N           -3.92828899834692        1.17394414916699        1.32598771041772
H           -4.19697565305826        0.76599834986270        2.20585823609023
H           -4.01093858508954        2.17185913413750        1.24167293270837
H           -1.87760636783044       -2.49987317065489        0.72042222325391
H            2.29418213681629       -3.05571115142136       -0.63402374772058
H            3.46256609854246       -1.53867248098589        0.75582409620246
