27
 energy: -46.109025662737 gnorm: 0.000764342934 xtb: 6.6.1 (8d0f1dd)
N           -4.62195725459646       -0.78046406835290       -0.87578571472971
C           -3.54400365620315       -0.50956359504117       -0.56477149284589
C           -2.23586185291728       -0.19495528981326       -0.19314554114028
C           -1.77168614274880        1.11352566776907       -0.36966895024780
C           -0.52587772630177        1.61358569148898        0.07632306434900
C            0.65229560363808        0.96165362561809        0.36937233923479
C            0.79425254832218       -0.48651738139058        0.23763559842801
N           -0.20342540916911       -1.30862999117624        0.60090293695128
C           -1.48970892645142       -1.19526079997043        0.53109533768030
N           -2.21201280082074       -2.14853289739332        1.17104076912791
H           -3.19375502753493       -2.24450894946906        0.97665281292824
H           -1.71379194798000       -2.92586846268006        1.56768090710708
C            1.94702911129276       -1.10739614540692       -0.19134117470208
C            3.23055407203353       -0.55277345770812       -0.41592386744773
N            3.75740470474169        0.53875530217420        0.10165700880734
C            3.08612070387556        1.47055419298857        0.77373555289163
C            1.74815177915180        1.73827587637160        0.84934413987843
H            1.47638304062589        2.68658255981400        1.29832535420693
H            3.75572456613440        2.18500923310642        1.24688636080846
N            4.08947203992297       -1.27260750286232       -1.18345436365685
H            3.86381903416484       -2.21120617791333       -1.45835651481918
H            5.04739346617821       -0.97022240025756       -1.21259838868221
H            1.84472990759850       -2.16719284208291       -0.39093331141634
H           -0.47197264631955        2.69687708465658        0.10509217656757
N           -2.61065540253774        2.01138524226739       -0.94546098916228
H           -3.54802538275077        1.73872771895962       -1.18611566416578
H           -2.36075717301959        2.98218880528297       -0.98795884511363
