27
 energy: -46.105450082449 gnorm: 0.000578841033 xtb: 6.6.1 (8d0f1dd)
N            5.10980514664278        0.67205271193867       -0.50016047908176
C            3.97023824256657        0.52087017091152       -0.42536102372160
C            2.58707010174415        0.31670209376311       -0.31958397052349
C            2.13513245269752       -0.79157211830222        0.47225760530355
N            3.08565157453774       -1.43186851948327        1.21364130994591
H            2.88108064127052       -2.33983339104377        1.59248189007041
H            4.05295573430003       -1.19153142714767        1.07225596342418
C            0.85925345402751       -1.32732740821398        0.44537938912526
C           -0.34447508636664       -0.78165200560071       -0.04671971115957
C           -0.42701070614289        0.67466996228699       -0.24592669542051
N           -1.40568759115366        1.38859575027617        0.25950232588039
C           -2.66718339600390        1.07887122238191        0.46398988320986
C           -3.36251881843909        0.00210540442235       -0.11381787496919
C           -2.78729901090854       -1.20060347881263       -0.50553236300573
C           -1.44181708486252       -1.58103937706756       -0.30027491888583
H           -1.24953255054402       -2.64630083165988       -0.36936479899945
N           -3.61042274083233       -2.15193495649328       -1.03893393491965
H           -4.60514935504925       -2.01726407767906       -0.99836032906194
H           -3.27695252845605       -3.09571599651665       -1.12271670369939
H           -4.44188334016235        0.07266666412793       -0.15303306485054
N           -3.35526525261131        1.95501494444860        1.24784240284087
H           -2.88635202199128        2.81412088260155        1.48034307939491
H           -4.35912634496903        1.96501120981501        1.20974570459097
N            0.47695959540430        1.31791253496373       -0.94881026441751
C            1.75406255666578        1.11284325800698       -1.10083978487652
H            2.21634475548021        1.72380936996609       -1.87072895022872
H            0.75597976605096       -2.29677457138773        0.92272366563443
