31
 energy: -60.174699668920 gnorm: 0.000815540192 xtb: 6.6.1 (8d0f1dd)
N           -5.65935462424900       -0.25092290369277       -0.59338758630096
C           -4.52804165258472       -0.22881233014442       -0.39647755177267
C           -3.13436867234028       -0.23297707510397       -0.17912620066324
C           -2.61079352223097        0.84038220646322        0.55594001405946
C           -1.29963241508064        1.22685973089541        0.68487909468914
C           -1.05530611977959        2.34228270990943        1.52248368601734
N           -0.86574311230627        3.18814801426153        2.27369272344248
C           -0.11825141528891        0.64038018898833        0.09509734532737
C            0.87690818125610        1.50161631428323       -0.34984008060602
C            0.51401245257164        2.85857425063002       -0.55503736283540
N            0.25172422480035        3.94338264495903       -0.81744823199152
C            2.19332524282004        1.20300249664593       -0.77342207663941
C            2.94090813934103        0.09411406961746       -0.49305715307022
C            4.28117844570932        0.08867632475204       -0.93930514390099
N            5.37231749711444        0.05935396909064       -1.29542993296325
C            2.52703962722406       -1.05909633673638        0.28179531376300
N            3.51911896727289       -1.81607979531771        0.79250692828895
H            4.48089811086043       -1.59181167179536        0.59958640021839
H            3.30521393011227       -2.65834092959328        1.30056886988669
C            1.20781559424198       -1.44697653742199        0.45829386233969
C            1.00632100027714       -2.66857929322739        1.13199528420327
N            0.86122701054097       -3.67143285557591        1.67611826655494
C           -0.02365738794087       -0.80206114320519        0.03366367079195
C           -1.05893838957291       -1.63100291365312       -0.31830321176740
C           -2.41891726087878       -1.36399084496202       -0.61887420707707
N           -3.09026805052220       -2.32782032764825       -1.27792658136094
H           -4.07893167228182       -2.23272540912577       -1.44453255186958
H           -2.64108336566921       -3.19517284759681       -1.51442235022951
H           -0.79117685955815       -2.67537777781923       -0.43636943818216
H            2.69292031693344        1.99825880248429       -1.31517888356926
H           -3.34302372610333        1.48648207494710        1.02702473021302
