31
 energy: -48.953901563490 gnorm: 0.000598509187 xtb: 6.6.1 (8d0f1dd)
N            3.79588131859404        1.71889664591284       -1.92475904986174
C            3.07305799798288        1.15356822823031       -1.22855691086884
C            2.20103882150985        0.43877197283200       -0.39237192438066
C            0.97601288914774        1.12560589722059       -0.01982157059023
C           -0.20347709718923        0.57618268819061        0.31323411331185
C           -1.28346334731932        1.45340420093171        0.80163684123719
N           -0.87515162199294        2.44816093222155        1.66531782644115
H            0.00995712101964        2.30979574981420        2.12458814806049
H           -1.58810123861502        2.88909306455224        2.22421419954351
C           -2.57025549653965        1.38840255430697        0.39869342234271
C           -3.14855404848795        0.45031080352417       -0.52198574208084
N           -4.35356196762335        0.85379774275486       -1.07813451900887
H           -4.47930582241588        1.84736347046578       -1.18616031913157
H           -4.67985800157011        0.31057904318576       -1.86147733944421
C           -2.69432265025618       -0.81003696388938       -0.75283802315485
C           -1.59027941030327       -1.46639915334633       -0.11897914396802
N           -1.69791393578268       -2.85615379089092       -0.04136970579195
H           -2.39468399701852       -3.25838038182214       -0.64816310840809
H           -0.82726151570344       -3.36328650857682       -0.04742370183739
C           -0.46980966851157       -0.86305909929648        0.37615880261831
C            0.51211983146838       -1.64612525804749        1.11339345125687
C            1.84786253464752       -1.58741087311741        1.01365966232212
C            2.62165921387125       -0.77038662263403        0.10112078003297
N            3.89125865273961       -1.22280073858375       -0.15294924195297
H            4.41829109082800       -0.75559591399957       -0.87291542975696
H            4.09023559416274       -2.19716366198575       -0.00560069165695
H            2.44223839944378       -2.25301662775934        1.62889058148283
H            0.09553435913972       -2.35664291019712        1.82194385773325
H           -3.29551015360589       -1.43453641861624       -1.40486834132700
H           -3.24996000830002        2.14666461744533        0.76930036548246
H            1.04245903728050        2.20643035197315       -0.05973534134486
