26
 energy: -47.153161288949 gnorm: 0.000977235705 xtb: 6.6.1 (8d0f1dd)
N            5.11487196961015        0.39392199208650        1.21790740411165
C            4.07523321223415        0.27527724668140        0.74843230125022
C            2.79867977998190        0.10910724963956        0.16501894127426
C            1.81463858054317        0.99267048136530        0.45122980737361
C            0.47366751206645        0.95496040266128       -0.09852527168470
C           -0.15278931527222        2.11556937005755       -0.41788755004894
N           -1.32270331064835        2.27713438117995       -1.08105026462863
C           -2.35315865777806        1.53316734464349       -0.96997539035986
C           -2.54846496692712        0.43762734596050       -0.04524185600436
C           -3.86019907102085        0.19572545276460        0.39882335742165
N           -4.92885395566011       -0.02678523393844        0.75978387507904
C           -1.54039119788341       -0.39433057167259        0.38885814168437
N           -1.75200391234455       -1.30884098962835        1.35796698080990
H           -2.65777761538945       -1.37912197331321        1.79281926447936
H           -1.06439808033462       -2.01988677533582        1.53606551412497
C           -0.17766971653227       -0.35961472024943       -0.18600064787670
C            0.40129503666377       -1.50255646189488       -0.63956771087954
N            1.66846756069853       -1.62898656639320       -1.17114153546806
C            2.68928636422774       -0.96151087252439       -0.82694864114003
H            3.61625046105238       -1.23439163792904       -1.32353817009030
N           -0.27178603991994       -2.72083178720715       -0.64875210779493
H           -1.26111515970896       -2.67750821365378       -0.84620649616503
H            0.21062360061898       -3.40743192293208       -1.21119627931108
H           -3.20924633801045        1.81879329969664       -1.57303004039685
H            0.37994544335801        3.04933856958596       -0.27599789067042
H            2.04729507806871        1.82573623874711        1.10700642921163
