26
 energy: -47.178368981091 gnorm: 0.000800199734 xtb: 6.6.1 (8d0f1dd)
N           -0.76726029849412       -3.16403123975912       -1.69352694999627
C           -0.15773154559741       -2.35442329196271       -1.15249642719699
C            0.62737240729834       -1.33823796083967       -0.57240863085033
C           -0.02650464191735       -0.09526377310619       -0.26071440275714
C            0.71283720534925        1.14595194520184       -0.48177852850535
N            0.13209169425141        2.09809684213785       -1.22581991528855
C           -1.07736501321850        2.54043540306643       -1.22858550055636
C           -2.11036176082691        2.24301241399821       -0.32849873429289
C           -2.21681129152569        1.05507139255590        0.37276633011828
C           -1.33247552726345       -0.07809960720684        0.20038222174073
C           -1.85793800774970       -1.30251373446146        0.66946617231183
N           -2.33089305933933       -2.24016292673937        1.13710614551960
N           -3.27964520670699        0.87316997467535        1.19383954983304
H           -4.00862951243738        1.56478289352345        1.21296799952833
H           -3.48799100886666       -0.04609351314119        1.54822176768872
H           -2.94010212568547        2.93339609188426       -0.26901290316630
H           -1.27851539988007        3.28145134842555       -1.99665748488228
C            1.99042937394101        1.35348219083495       -0.01965408261676
C            2.84866739241408        0.37844989771161        0.55017052067379
N            2.88483313708021       -0.91288432410087        0.26815065505316
C            1.97343426683050       -1.60361363808311       -0.38602546717094
H            2.33005693819255       -2.57520780066936       -0.71569965562481
N            3.84010709494455        0.80245723407991        1.36268477227051
H            3.98785700461783        1.78061495356979        1.53334780368638
H            4.52347304812959        0.13156821306505        1.66930113621970
H            2.35764667235877        2.36997010114021       -0.07365668593819
