26
 energy: -46.376243954536 gnorm: 0.000778355882 xtb: 6.6.1 (8d0f1dd)
N            3.91450046724457        1.74958427000550        1.48299622455116
C            3.13469002619051        1.04221030966473        1.02023107998593
C            2.15381044984822        0.20960398050085        0.45216289652596
C            1.09764589826344        0.86526766359339       -0.30503869800737
N            1.40032227018106        2.10340181317066       -0.84572834276605
H            2.20296395635918        2.56853375828168       -0.44949525321677
H            0.62268298518284        2.71154170971979       -1.04425181061570
C           -0.14136347643423        0.32623208879049       -0.45408881223811
C           -1.21298215709555        0.94181234952292       -1.25201215968032
N           -2.39611027251384        1.15466172423140       -0.84934418895475
C           -2.90018918366773        0.72637151289451        0.35531791076193
N           -2.76372660456206       -0.45486936704355        0.86323690150787
C           -1.78893129624694       -1.31603352948062        0.46459622250613
C           -0.57807647429444       -1.00785602521308       -0.05216051981416
C            0.40238816755650       -2.04953462599683       -0.45071414669399
N            1.60957101386499       -2.10625847267855       -0.01430959375024
C            2.27507935610137       -1.14258495047216        0.63248873201394
H            3.08451527652011       -1.51375402774978        1.25036322479692
N           -0.02285425278801       -2.97068009975003       -1.33691103054530
H           -1.00463755232098       -3.07323313598629       -1.52301195609707
H            0.61440131173900       -3.69084730324576       -1.63256210983139
H           -2.01744617345079       -2.35001244897393        0.69949765492369
N           -3.75820112513750        1.59895796469487        0.94790196437288
H           -4.35210776064442        1.22153995328963        1.66653302593028
H           -4.11674165824791        2.35124122599801        0.38523408659399
H           -1.00589399184218        1.20150653681282       -2.29041041946110
