29
 energy: -54.378824750677 gnorm: 0.000442080154 xtb: 6.6.1 (8d0f1dd)
N           -4.99175618223655       -0.43591178735065        0.15039271267171
C           -3.83998981702835       -0.40615278470088        0.11801236251308
C           -2.43539566962432       -0.37533872568411        0.08283138352794
C           -1.87063381931361        0.77529114519208       -0.51438127181183
N           -2.72044917691799        1.63450676761495       -1.12922424065288
H           -3.71433784564598        1.49586383579435       -1.05533781922001
H           -2.37822097854103        2.53246924858674       -1.42844017425514
C           -0.51414893762728        1.16338089701056       -0.44584085856316
C           -0.21346442149964        2.49044762681749       -0.80880591214943
N            0.00518988423530        3.57260529656015       -1.13165818101881
C            0.57371277936148        0.41132554998636        0.03567513810701
N            1.60768819554642        1.05285617109660        0.52226888325896
C            2.84928029052214        0.64373009115756        0.74522808915631
N            3.54317007242409       -0.25186221475817        0.05366937803014
C            2.89694871138008       -1.17532258746985       -0.66080629378185
N            1.68001062373719       -1.64975972624292       -0.46577309054654
C            0.60201370105252       -1.06321448259698        0.02218718782788
C           -0.44060913079481       -1.85210674570694        0.48421781258604
C           -1.78654414504187       -1.51923485683683        0.62285660664259
N           -2.57987269817644       -2.43048607087984        1.24511453570808
H           -2.19602008674444       -3.32270725496256        1.50016863750752
H           -3.58059660693948       -2.33167861269785        1.21604154285180
H           -0.17765465011210       -2.87988871292555        0.70097597552245
N            3.63200664887823       -1.80483173864956       -1.60417131579592
H            3.26826444494423       -2.64628875152065       -2.01399755740862
H            4.61998104653816       -1.62628599850742       -1.62295035564286
N            3.52363626568092        1.32232798767854        1.70059566071930
H            3.11390318157721        2.17255790433437        2.04668421762174
H            4.52317910866630        1.21987081266113        1.71792298109451
