26
 energy: -42.377585229857 gnorm: 0.000949035248 xtb: 6.6.1 (8d0f1dd)
N           -1.99510096129774       -2.59379867555059        2.00047234943456
C           -1.89183418382212       -1.64303728220498        1.35994795317391
C           -1.76298745246082       -0.47785701713517        0.58146618329397
C           -0.41529028936273       -0.20969285297195        0.09940404081615
C            0.38966390515830       -1.27420747741292       -0.18718067533076
C            1.76942129320721       -1.30274271507699       -0.57278452752162
N            2.17800350913826       -2.44860461288951       -1.18555661778078
H            1.56749530231441       -3.24618418106631       -1.19626231720963
H            3.15906536847395       -2.61142705137152       -1.32716440654414
C            2.69344760340821       -0.32086471936889       -0.30874189249665
C            2.38792746785073        0.87041567781235        0.40761763273638
N            1.25360356318545        1.50361751933626        0.42621659808890
C            0.03875045176105        1.16799576478050       -0.02081074417214
C           -0.73044428162942        2.20470709910181       -0.53413560250098
C           -2.09153260770181        2.25223640499692       -0.82389670810021
C           -3.08531978596437        1.38352073522638       -0.43273802409531
C           -2.92042773644986        0.21565646128544        0.31926628592828
H           -3.82751914341021       -0.22797695684871        0.71657611016632
H           -4.10472826432655        1.65991930354323       -0.66546355534698
H           -2.41920371128888        3.14219598725989       -1.34861838291490
H           -0.16306259889507        3.10329564294629       -0.74134365312923
N            3.41285956108626        1.49613713362130        1.04731806831094
H            4.27194963488708        1.00635884251428        1.21842677222121
H            3.17939989300249        2.27551806538348        1.63779015141622
H            3.73437894552043       -0.51797941907700       -0.52504314237816
H           -0.08221993939136       -2.25005784273754       -0.15956374686736
