26
 energy: -47.182845412552 gnorm: 0.000851449821 xtb: 6.6.1 (8d0f1dd)
N           -0.67111438135705       -3.41398742042154        1.21519264081157
C           -0.81286345750473       -2.33246831535294        0.85849998595954
C           -1.03384086782934       -0.97531576247434        0.52609991089823
C           -2.29120149294256       -0.46917488628791        0.99298149103105
C           -2.92923437479645        0.64873440350581        0.58540084013033
C           -2.40556635906297        1.51904448547280       -0.44607102872341
N           -1.15794673533181        1.75584608817542       -0.67004967371203
C           -0.04875978171525        1.18434361462915       -0.16953160452829
C            1.01009219438499        1.99184905277384        0.15909320322601
C            2.33005470948555        1.57167375584898        0.48029869067150
N            2.96662934727121        0.51543885685973        0.01297771228121
C            2.43325633590498       -0.49971492615001       -0.64177442888585
C            1.13026353297310       -0.95961973077991       -0.64306099923716
C            0.87463791709148       -2.18065837176714       -1.29872946310805
N            0.67142614379010       -3.13453048421709       -1.90562943839955
C           -0.00204898225284       -0.27594854620325       -0.07214366649642
H            3.17088203433743       -1.11209404106188       -1.15229442686399
N            3.08819391577196        2.39920393123618        1.23052605814352
H            4.04980726576576        2.15449095811541        1.38810448302368
H            2.73296577139222        3.27931910633084        1.55629129491297
H            0.80144555363781        3.05204309834748        0.21633787219520
N           -3.30613330159791        2.20585242430328       -1.18717565467998
H           -4.27996288566781        1.96570438710861       -1.14769007242680
H           -2.96695779972405        2.72486983629766       -1.97866676455301
H           -3.92703033932476        0.85514694159692        0.94445420929411
H           -2.80712889859968       -1.12235341048704        1.68697641893553
