28
 energy: -45.005145441007 gnorm: 0.000620279819 xtb: 6.6.1 (8d0f1dd)
N           -3.87905890194392       -0.17197607814341        1.04756796204457
C           -2.63606252296972       -0.41235919755928        0.48295332162241
N           -2.28008174591518        0.53150408125338       -0.43589258479067
C           -1.08254191322061        0.87209192696285       -0.73327582597407
N           -0.87023754978615        1.59830610865916       -1.86314764568882
H           -0.03078137353448        2.15151395792098       -1.90686204100063
H           -1.68225529978456        1.93342317143596       -2.35523444408162
C            0.15415815840931        0.48594042575188       -0.00313813190704
C            1.00556404672522        1.42248144365276        0.47936447835895
N            2.18391845571563        1.21130104696383        1.15117551471337
C            2.95757123657224        0.20685621317495        0.94958045159011
C            2.83802514701897       -0.88291181380554        0.03863429953082
C            1.67472370713194       -1.40331785131897       -0.44010065924261
N            1.68031592712550       -2.45120504927586       -1.31075992895307
H            2.52984334909091       -2.69309915265948       -1.79160048199041
H            0.80854832130090       -2.75190366504588       -1.70953374712474
C            0.34932440076806       -0.95612696888707        0.01983953059586
C           -0.61655752896298       -1.85065452827804        0.34358083532672
C           -1.94778017431386       -1.55953252921475        0.75177171899393
H           -2.46732713467652       -2.33558325385752        1.29899015825574
H           -0.33634073026281       -2.89759036182171        0.37022821484371
H            3.76386128712539       -1.36753438672239       -0.24786520594412
H            3.88445131727629        0.24694419439413        1.51849943766759
N            0.71362584635897        2.79149737245459        0.34694262444875
H            1.31552485521978        3.33543568803839        0.95113274423767
H           -0.26193622239164        3.01850080117971        0.48919467810849
H           -4.37621288139671       -0.98403877540169        1.37717945796236
H           -4.44451707487931        0.48319280194884        0.53087162899707
