27
 energy: -46.087369217787 gnorm: 0.000760408042 xtb: 6.6.1 (8d0f1dd)
N            4.72336540981949        1.07130303271058        0.10459730969878
C            3.66435054391360        0.64747807044059       -0.04638396162142
C            2.35781991048249        0.15604377534904       -0.22324607976068
C            1.32113506956913        0.92906014610434        0.24451012401058
N            1.55295266751186        2.04497346156646        0.97871732513478
H            2.49970565485480        2.34920564157301        1.13649295771493
H            0.80092908888073        2.68424521869435        1.16513086097014
C           -0.08418461311065        0.61018663206890       -0.03380565719770
C           -0.93618129199807        1.57963912118207       -0.46376382902016
N           -2.24665439489683        1.46311712285414       -0.78880936629371
C           -3.02957932296831        0.56244997356264       -0.28756465753052
N           -2.80085742488803       -0.12373091927006        0.87521670431978
C           -1.68036054580940       -0.63288962945330        1.18245160852325
C           -0.51837455439689       -0.74932754860979        0.28145449521538
C            0.07267768068658       -1.91628507827439       -0.05926116642959
N           -0.45217124372019       -3.12539419651274        0.37900288952754
H           -0.19742455369266       -3.93255563754128       -0.16729982785189
H           -1.42007168476130       -3.11166952798758        0.66014921381873
C            1.27067277351856       -2.00475782632349       -0.86484719219835
C            2.25734403522892       -1.09570051201355       -0.93321102071751
H            3.13283603562195       -1.34313364009134       -1.52115979385998
H            1.40204295612485       -2.93688855105156       -1.40015220934745
H           -1.56407827580354       -0.95731605116229        2.21606695237472
N           -4.26884254672362        0.39356671147487       -0.82827206652670
H           -4.97322672048420       -0.01210585785060       -0.23580779279006
H           -4.56364148173560        1.10239980751010       -1.47928978903730
H           -0.54092514490894        2.56383478864937       -0.69330424322667
