25
 energy: -47.478428726548 gnorm: 0.000995678601 xtb: 6.6.1 (8d0f1dd)
N            0.75478490585950        3.56805835582355        1.31208997825381
C            0.31270784496610        2.55931533264600        0.98975050000092
C           -0.22914716327276        1.31047779141041        0.61658293751165
C           -1.61087563862660        1.19549720060501        0.55650480867889
C           -2.39158425819830        0.16781668059090        0.03667499514985
C           -3.76762676105162        0.46218700743413       -0.07301717320221
N           -4.89145546410637        0.68321887791229       -0.17077372738308
C           -2.00179172881932       -1.14423114764221       -0.37145018856504
C           -0.76220893134287       -1.73637085983222       -0.11824912297787
C            0.38896632079678       -1.13008233927903        0.35261158426511
N            1.30461888521571       -1.83115925255501        1.00175958323898
C            2.58563226211488       -1.66278820637215        1.15315251776931
N            3.43198179550402       -1.00795971702333        0.38171193187727
C            2.96422766312080       -0.06353344241456       -0.44004512677267
N            1.84977185589810        0.63932081743008       -0.27622410072012
C            0.69447839181463        0.30925210253342        0.22658559455672
N            3.77520324363249        0.32616393898091       -1.44017671898126
H            4.71398039660039       -0.03324218137272       -1.44473807436401
H            3.56689185685822        1.18020132311926       -1.92886387305373
H            3.03602494326066       -2.24344744002164        1.95219776819044
H           -0.71093506505025       -2.81254209508110       -0.23052026453475
N           -2.95341848654422       -1.91510995336555       -0.94536042339766
H           -2.76350395193001       -2.88143938895830       -1.14374548137386
H           -3.90027934372240       -1.58170067242952       -1.01818165872694
H           -2.16206875037684        2.07823044306232        0.86369977186054
