24
 energy: -38.135691491571 gnorm: 0.000439633059 xtb: 6.6.1 (8d0f1dd)
N           -3.65121873382863       -1.04089386296093       -0.91272096339511
C           -2.64386176550832       -0.32268135806382       -0.32774306125919
C           -2.89746752064090        1.00163972918607       -0.00315052158047
C           -2.00467639935248        1.93112552882462        0.53444365041515
C           -0.64693436278927        1.86008850719175        0.68035823934242
C            0.23467768080422        0.78912155004335        0.36344826951667
C            1.54828443443693        1.09029250413244        0.04446105072634
C            2.60094141700062        0.20887724617094       -0.31344902954583
N            2.77525312062207       -1.05504243884870        0.04092975810099
C            1.86926536029088       -1.68054992580614        0.79251202485717
N            0.59705347552350       -1.54230568161561        0.87749960651294
C           -0.22165624945755       -0.59269251692605        0.36054769735591
C           -1.45852785143656       -1.03554121730618       -0.04216133953529
H           -1.53585354639596       -2.11474924391086       -0.11422896083106
H            2.28101104617510       -2.50115012383900        1.37792916315767
N            3.62778503026078        0.73250597140580       -1.02963894463131
H            3.71052896011890        1.72494996569134       -1.15718468144957
H            4.43657055679749        0.15166916815400       -1.16627025165305
H            1.77778265277587        2.14497241427084       -0.06157050812738
H           -0.15327330701158        2.76568513100089        1.01393515850662
H           -2.45233408990665        2.88004571033778        0.80818921502290
H           -3.90920502211837        1.35012411056560       -0.17018682930206
H           -4.58155440643780       -0.65934761628510       -0.90607501422808
H           -3.57348518352229       -2.04291136491231       -0.93982346687716
