31
 energy: -53.774412989391 gnorm: 0.000781776806 xtb: 6.6.1 (8d0f1dd)
N           -4.52138492082870       -1.92821585504467        0.36655857721553
C           -3.59430875319494       -1.31721239862622        0.06531433957454
C           -2.43654498383107       -0.59929839297682       -0.28573301888207
C           -2.56786198535635        0.30496699181466       -1.40162317821597
C           -1.85327524411795        1.41910109708761       -1.63569916948517
C           -0.79352494495382        1.94414965376218       -0.80298455869741
N           -0.68741469917277        3.33436812576087       -0.75642848427094
H            0.22816973025912        3.68526998433443       -0.51734218652713
H           -1.09098793190192        3.80740540933004       -1.55075136317141
C            0.02805514637186        1.16569868316324       -0.06445729232334
C            1.04041412243700        1.71508311679960        0.87785136238743
N            2.30979704382748        1.57095992595594        0.72699286180044
C            2.89478126494291        0.69703313883743       -0.09936976282772
C            2.42775264343074       -0.54648568121140       -0.44177135036399
C            3.31906626674618       -1.41172721429257       -1.10360196925091
N            4.02349603344211       -2.13192752148629       -1.65802566434505
C            1.11112733014684       -1.07646557555424       -0.13622541516561
N            1.01756049690070       -2.46572388233300       -0.00996791637941
H            1.81282110901241       -2.96072269437591       -0.39006800675799
H            0.14030780924035       -2.86356603629607       -0.31472079288585
C            0.00979602227390       -0.28900153462376        0.02537011835001
C           -1.28839125447392       -0.85436157633345        0.42639542794147
N           -1.29581692646281       -1.61783929177241        1.54758088228038
H           -0.42295132281448       -1.98109314246703        1.89005505118632
H           -2.14975634743734       -2.07173942331034        1.82969582291237
H            3.90032885623100        0.97423820728744       -0.39274846914840
N            0.56247582962185        2.37250665150033        1.95091044779091
H           -0.39660877951160        2.66937648102249        1.96826188744486
H            1.20287663591368        2.70978500898722        2.64923763744562
H           -2.14135423805149        2.04207153714676       -2.47312384947975
H           -3.39882959509783        0.08581392031827       -2.06092078254819
