25
 energy: -42.656867477179 gnorm: 0.000736589815 xtb: 6.6.1 (8d0f1dd)
N           -3.74040261336367       -2.16263962276120        0.59268876737186
C           -2.84385866485905       -1.47836936711923        0.36134280610556
C           -1.77044524865845       -0.62438604634696        0.06902796002612
C           -1.95191168659332        0.73994641481957        0.27321316374685
N           -1.19355864134234        1.70670444382058       -0.28730352636731
C            0.06427009988727        1.67339066961661       -0.54020990029752
N            0.59231893141645        2.62562809582769       -1.33317131647730
H            1.58230531281087        2.66380544312995       -1.49445998716057
H           -0.01332324256003        3.29500584880231       -1.77525890005290
C            1.00914952904849        0.65465847834397       -0.01396853934728
C            2.10412972982792        1.00722153906969        0.70113204226206
C            3.07931955084891        0.10405549801703        1.22602688294246
C            3.34210079729520       -1.12653397925576        0.72160304614947
N            2.93165000029992       -1.57331320125206       -0.48998744393147
C            1.82744937236239       -1.35031828281619       -1.05734192275317
C            0.65280196520333       -0.67994155439758       -0.45211522309247
C           -0.58479532415713       -1.21876338778703       -0.47199740959934
H           -0.69071184314291       -2.23103288732830       -0.84230169301326
H            1.74016956280216       -1.66271305689608       -2.09514071627174
H            4.08722988354814       -1.76230372411528        1.18148901454669
H            3.68142055801612        0.46425029183792        2.04894058624717
H            2.21478352156256        2.05112137460095        0.97013117704473
N           -3.03367061878488        1.20548539106210        0.96023061636077
H           -3.78631591333196        0.56452754077192        1.15044326311551
H           -3.26093469083746        2.17851476885615        0.84975350994230
