25
 energy: -42.656037028755 gnorm: 0.000871386227 xtb: 6.6.1 (8d0f1dd)
N           -2.03505670522699       -2.58492014517343        1.96523375853709
C           -1.91395589021661       -1.63555281352724        1.32681434971958
C           -1.74948115735638       -0.47489603945887        0.55039069405920
C           -0.40001647100381       -0.23119310918034        0.06346758193357
C            0.40924225923794       -1.29241213518984       -0.21092206210683
C            1.79860328161253       -1.31449918676692       -0.56445702321074
N            2.22616237272917       -2.45123267604323       -1.17450292904776
H            1.61179940058983       -3.24305592267581       -1.23995696904794
H            3.20878690997800       -2.60572432730916       -1.31350339000880
C            2.71427549795197       -0.33637335169658       -0.25338988823588
C            2.38493610539945        0.85847766600267        0.44236110986649
N            1.25362799731904        1.50431205663500        0.38633073567411
C            0.05247539327185        1.15283427431540       -0.05771693987718
C           -0.73219290742485        2.15278489429770       -0.62906882394033
C           -2.08210042142464        2.09250472120962       -0.96731689744735
N           -3.03437328337891        1.33086716688115       -0.49246157832274
C           -2.86279750040204        0.30490754392034        0.33290063860814
H           -3.78372829946504       -0.00829713144199        0.81862773546350
H           -2.44933896236887        2.85642644440250       -1.64887035732629
H           -0.19684897180989        3.05695298864608       -0.88820759936996
N            3.37164091702953        1.47999745502114        1.13303194000767
H            4.25287174750818        1.02775817491640        1.29075279852857
H            3.13343735972536        2.29589589642782        1.66856904585392
H            3.76197188128030       -0.53593071340343       -0.43182971129987
H           -0.06161939195482       -2.26890333990900       -0.19380811681049
