26
 energy: -47.970739513371 gnorm: 0.000698664621 xtb: 6.6.1 (8d0f1dd)
N           -5.04926892058623       -0.43245257334607        1.37484785597509
C           -4.02171496168701       -0.14121511886337        0.95612532754324
C           -2.75074299776447        0.21648967448185        0.45281181493026
C           -2.33438248673533        1.52123008464285        0.62080127162383
C           -1.17433964563493        2.11979147032515        0.11635921584326
C            0.02154949488085        1.55166698969380       -0.27381310484434
C            1.02522570106189        2.39946823652089       -0.86013776766707
C            2.37370035026901        2.23967961605884       -0.81786480068051
N            3.10600028429521        1.43188624599812       -0.03650908412161
C            2.71701464564934        0.32586159339364        0.51403522330985
C            1.49919216890086       -0.41973747591116        0.16916667505760
C            1.59611440033668       -1.81563606790446        0.35269387639423
N            1.74129024450802       -2.92746104100640        0.60283911162767
C            0.30081601337633        0.13080773581691       -0.19632059107345
C           -0.75758735157694       -0.77566675495085       -0.65660545052977
C           -0.31813407315908       -1.77334301843769       -1.55907664857425
N            0.01998937490221       -2.54470005712376       -2.33780315102638
C           -2.07717403295637       -0.76077401945058       -0.32961885560179
H           -2.68312130187638       -1.58312773336449       -0.69283860449669
N            3.53917302148935       -0.23791791996863        1.41509760250058
H            4.42609487350075        0.20560891021940        1.58564121357047
H            3.38309564418401       -1.17615661945768        1.74368639918417
H            2.99013376194472        2.93852308673073       -1.37259677062393
H            0.64377310673781        3.26407706900090       -1.38778491688400
H           -1.18319846678446        3.20311384285912        0.11064598722326
H           -3.03116464767653        2.18449855274273        1.11958280994095
