26
 energy: -47.164328680623 gnorm: 0.000507289178 xtb: 6.6.1 (8d0f1dd)
N            4.05659928095841        2.69712523421803        1.04383905041179
C            3.34817411667248        1.86816384984572        0.68460516019467
C            2.46731806884699        0.85743883413346        0.24662408342395
C            2.92819297926245       -0.43450876211549        0.22752110834697
N            2.35951942404093       -1.45731616652737       -0.42372440363182
C            1.11044856877898       -1.62013528418881       -0.66538243070678
N            0.72666435619381       -2.47714921882812       -1.63069305896359
H            1.42987693160277       -2.94076790558551       -2.18030644349907
H           -0.22966971012020       -2.77793461196904       -1.68997682230299
C            0.00303315309006       -0.90773822854564        0.04069880692583
C           -0.95124294315986       -1.59072687908350        0.71813727893055
N           -1.99606633698972       -1.03274064776244        1.42733132979091
C           -2.62041694870395        0.01967941403276        1.09670857807167
C           -2.41401186244435        0.87609045809037       -0.07388942909222
C           -3.56435618242997        1.55218535901127       -0.54291294198349
N           -4.50711842345359        2.08649132086512       -0.91771429720864
C           -1.21766994557673        1.11911151517760       -0.65438524281369
C            0.04107093048747        0.52819515241668       -0.22266776716741
C            1.16554417495123        1.28635096968880       -0.18308645426745
H            1.06637646448987        2.34317725885046       -0.39902029236499
H           -1.17263354625662        1.84295216917412       -1.46190430215249
H           -3.44199452519738        0.30399532128690        1.74770726748576
N           -0.93469254276136       -2.97710702741559        0.81650508234938
H           -0.01969413501330       -3.40372730842443        0.82652949571853
H           -1.53592325325858       -3.31088895849310        1.55619193458827
H            3.91493490368982       -0.65470911405245        0.61584321921663
