25
 energy: -37.833025717080 gnorm: 0.000872160305 xtb: 6.6.1 (8d0f1dd)
N           -0.70231260721983       -2.85260347035495       -0.26621242775896
C           -0.86622383239891       -1.51591915111255        0.09277316845870
C           -2.11842730312850       -1.18350975287812        0.72332580249055
C           -2.75449033256364        0.00428133304253        0.65522564761790
C           -2.33451597673752        1.18233875208666       -0.03086754283610
C           -1.06728562650060        1.54960145616988       -0.34224513227741
C            0.12275193450608        0.80352399099441        0.09699881172075
C            1.18209132369940        1.46474397036948        0.63670706586219
C            2.41624367932449        0.88877780934625        1.05986200908327
C            2.95753912621417       -0.25857144363078        0.57869638158699
N            2.53651312983609       -0.89033064445927       -0.54502362069865
C            1.33760374951307       -0.98871126799822       -0.93188267899043
C            0.11624729521857       -0.62036197576478       -0.17078114593356
H            1.18366242458160       -1.34875230433687       -1.94773247190946
H            3.91084998707942       -0.61596944138401        0.94563471115135
H            2.99537208202068        1.46436790452561        1.77037059606871
H            1.05457525043883        2.52094612999782        0.83938470848244
N           -0.81586816042770        2.73395624075815       -0.99930637635191
H           -1.56906161534783        3.13403025422601       -1.53525074268234
H            0.10576083351955        2.85248534001845       -1.38611773588871
H           -3.12429177264598        1.87711286786479       -0.29202580623399
H           -3.74045303776310        0.06451645736901        1.09975225653049
H           -2.62639577634133       -2.00678431417669        1.21120953152490
H           -1.25976116193335       -3.50516086769670        0.26261416693229
H            0.25356154005553       -3.15021100997129       -0.38720913104784
