29
 energy: -49.538748756255 gnorm: 0.000920299484 xtb: 6.6.1 (8d0f1dd)
N            4.09442114380970        1.70829704829505        1.39147405917023
C            3.19384738022472        1.15110834722568        0.93723325964607
C            2.11915198448750        0.46194385129385        0.35739812157798
C            0.97576116082950        1.26462983293282        0.00090932275724
C           -0.27961970577813        0.82395851474721       -0.15806390939188
C           -1.40175620791928        1.69421181690810       -0.60031359917941
N           -2.44061529190156        1.92404276042033        0.12215342690727
C           -2.81162630376690        1.19259002895400        1.18246973638569
N           -2.68463140404732       -0.07334074748545        1.37512091694439
C           -1.89559332819113       -0.89330284855206        0.62442228784963
N           -2.32261979759141       -2.23248510589312        0.66703685394320
H           -3.06204175963147       -2.33257167653673        1.35076084139761
H           -1.57710271375490       -2.89644323167521        0.83284361780675
C           -0.75685771664959       -0.54788675875593       -0.05032456847393
C            0.02514784225825       -1.54260584138435       -0.80215881205860
C            1.37121609081435       -1.68184376459790       -0.69097659777985
C            2.29115926820560       -0.87836914154604        0.05790286762072
N            3.45193263867917       -1.49947158553725        0.43033069032356
H            4.20550730316844       -0.92961015414290        0.77838821431798
H            3.69604241163373       -2.37343161022833       -0.00080212970616
H            1.82068125277013       -2.52370218772710       -1.20778758739858
N           -0.69401248789241       -2.30654797180803       -1.67753588962391
H           -0.23902779101397       -3.08725446957677       -2.12114596651213
H           -1.68153741108108       -2.39460546986747       -1.49868483965940
H           -3.43415253425837        1.72262916167089        1.89527342397199
N           -1.30825050928463        2.22000725573737       -1.83653888845409
H           -2.06312759394236        2.78722690738246       -2.18348817746344
H           -0.42161407412857        2.23468381068325       -2.30833128889591
H            1.16793870295277        2.32722924866410       -0.09473946022130
