28
 energy: -50.614872820746 gnorm: 0.000778579764 xtb: 6.6.1 (8d0f1dd)
N            4.22596831494444        1.42139579265503       -1.93593767248379
C            3.33337605690493        0.97397437162396       -1.36476547334012
C            2.27777518688829        0.41044074457798       -0.62772154250844
C            0.99489449742037        0.68762967683126       -0.96756759626819
C           -0.17579571163831        0.15697472787023       -0.31362717380390
C           -1.29775543938357        0.93732796199314       -0.15812240717946
C           -2.52850479429342        0.47602524859521        0.45989035997825
C           -3.34811608832656        1.46125995867415        1.04312989279690
N           -3.99650618158110        2.28122357642845        1.52200786897315
C           -2.97150331583848       -0.82043358569228        0.51272685750762
N           -2.48685785964213       -1.85957802253640       -0.16947406676395
C           -1.26204634468549       -2.03568435240073       -0.52100323144628
N           -0.97819556622160       -2.97408506302857       -1.44187436360045
H           -1.73101333988879       -3.50359994698917       -1.84794190286242
H           -0.02741928184292       -3.24757918589967       -1.61239253437164
C           -0.10571605076563       -1.27487071653120        0.01805888316882
C            0.94484128049828       -1.91959264392387        0.55007457976461
N            2.09105087217522       -1.38329789571396        1.07247075305663
C            2.67469218389584       -0.35178304355877        0.59025051312344
N            3.76846739298576        0.12944870720355        1.22839750546869
H            4.12020829978324       -0.40592733278418        2.00358304618074
H            4.38854039739648        0.76755733944665        0.75998642251341
H            0.88687190409450       -2.99206237257434        0.70298557274618
H           -3.89140798368474       -1.03427186363538        1.04453871305649
N           -1.28468318870755        2.26255109059279       -0.53205275942323
H           -0.40084828227067        2.73672155166314       -0.59539942464955
H           -2.05364666504568        2.82863465747467       -0.20988528040960
H            0.83508989002732        1.37112412623857       -1.79837010662704
