26
 energy: -47.181840898650 gnorm: 0.000719003540 xtb: 6.6.1 (8d0f1dd)
N           -4.59989780760619       -1.78299672602305       -0.05631996242352
C           -3.51262537751125       -1.43222169636040        0.07853294782870
C           -2.18798980021284       -0.98908548622402        0.22927086733893
C           -1.31820306024590       -1.81842104598963        0.95419186827122
N           -0.02349473541498       -1.82935858791251        0.94521340197245
C            0.83452961626503       -0.93097020093762        0.46843616178560
C            2.02664740562033       -1.36774729805719       -0.08718220247062
C            3.20334692293338       -0.64402726304850       -0.35632860151281
C            3.55645672887792        0.58384006607275        0.23204523926097
C            2.72267285353937        1.34312269234789        1.03191418595874
N            1.41647266261666        1.35609344502899        1.01995357599012
C            0.55005557723481        0.50440485520966        0.52513318476986
C           -0.66966019637973        1.00237290637740        0.01245567261092
C           -0.66026845464752        2.37512473202059       -0.30857790735097
N           -0.69388910443119        3.48759679433906       -0.59748824475786
C           -1.86658865689694        0.30116216615464       -0.27154267603641
N           -2.82115589816053        0.95076268487981       -0.97111751430439
H           -2.69489182313928        1.92132616448745       -1.20768245497344
H           -3.73461383224227        0.53836992107603       -1.06768253296746
H            3.16151574055653        2.11055274548958        1.66023727959213
H            4.58102939903428        0.90847908913267        0.11591568959355
N            4.13758447643342       -1.25953695159734       -1.12110906373387
H            5.04719031727655       -0.84981957141556       -1.23533327754528
H            3.99455236086496       -2.20254415098244       -1.43555594512866
H            2.03529134682700       -2.41435133254682       -0.36689918743219
H           -1.76818855059213       -2.62780397452160        1.52169290716478
