29
 energy: -48.744763135660 gnorm: 0.000575649213 xtb: 6.6.1 (8d0f1dd)
N            0.49822398782054        2.87218319603572        0.06665032143415
C            0.80986816854619        1.50891062731955        0.20259141541169
C            2.10055434101459        1.20738300471240        0.73908730355654
C            2.79754960655062        0.04844714686416        0.55951358477813
N            2.51104514319539       -0.94869719255614       -0.32056787623752
C            1.34355167557438       -1.32190560246600       -0.69580407087248
C            0.06102650979009       -0.87375702291654       -0.11103165246011
C           -0.88838061266362       -1.75093518606172        0.28643348721805
N           -2.08606098397010       -1.47797475565761        0.87392997946123
C           -2.72523750549332       -0.36914910975993        0.68654159973984
N           -2.56021129293440        0.54582798523596       -0.31330932880442
C           -1.41372465131133        0.90829015806495       -0.77097026478333
C           -0.11402378462998        0.57273589717511       -0.14558936668723
N           -1.35965907393924        1.60606558468060       -1.92631257950413
H           -0.50624980934022        2.07558704122318       -2.17205704002053
H           -2.21661163248823        1.85208160869730       -2.39147386142441
N           -3.80777211959247       -0.11938208113629        1.48969218213816
H           -4.50396688797486        0.50061334444385        1.11091435765215
H           -4.14203691399920       -0.91158882166480        2.01321523711503
H           -0.67315045240135       -2.81521458883497        0.25801091710889
N            1.25083151765166       -2.17680662037446       -1.74385814926161
H            2.10235374619117       -2.54664597495126       -2.13116678255364
H            0.38972508837832       -2.67140524688080       -1.89632977060058
N            4.04805512436291       -0.10944026965830        1.13382362984163
H            4.39085415305712       -1.05635390234101        1.12608184563357
H            4.21733465340237        0.40099927107824        1.98437651970758
H            2.58634441021499        1.99499139627461        1.30195065885723
H            1.07702896790930        3.46893234570919        0.64035449308712
H           -0.48400244682105        3.08491478344442        0.17720445586887
