27
 energy: -46.103124022588 gnorm: 0.000839153156 xtb: 6.6.1 (8d0f1dd)
N            1.62433542160346        3.34758975938700        0.16437897256991
C            1.38470284994852        2.22447234007019        0.07809747585833
C            1.14887264378000        0.84097115966005        0.00888380813871
C            2.21736507362924       -0.00627863749085        0.44387082477405
C            2.34000106943734       -1.35413105084878        0.15937483548627
C            1.38128580698351       -2.15633293832251       -0.49345140199534
N            0.07845906280184       -1.98364747371259       -0.51281738760674
C           -0.62603575233760       -0.89349769764692       -0.23792662273360
C           -0.11486057467163        0.46135131914002       -0.46593116601705
N           -0.82985104671820        1.35067775189181       -1.13159739293721
C           -2.11381446165998        1.56199964972883       -1.17139309297922
C           -3.08068655656071        1.06030895472791       -0.31431644144288
C           -2.95094907824639       -0.13140287539717        0.41248226116319
C           -1.90168646479655       -1.05651692774880        0.28961384365106
H           -2.08816900306390       -2.04291414159890        0.69715344700778
N           -3.99398971643799       -0.49100175816356        1.21502322406892
H           -4.84833676805348        0.03566141448181        1.17277807101519
H           -4.04257155131769       -1.43034264918877        1.56765003580170
H           -4.03626730518374        1.56516293646079       -0.27481857655285
H           -2.41220606351859        2.30036703664416       -1.90906129502778
N            1.81035430322763       -3.30271692944225       -1.08618303385008
H            2.74119541044837       -3.63846988707577       -0.92035658633015
H            1.11192061180273       -3.94904663612398       -1.40821508569831
H            3.28699850497917       -1.82248501826087        0.39658147604089
N            3.23091952423123        0.60178253969225        1.12167336664663
H            4.09785366506040        0.10919125899815        1.24590931786776
H            3.25596554153386        1.60779686313851        1.14987060568117
