24
 energy: -42.949394051083 gnorm: 0.000749288294 xtb: 6.6.1 (8d0f1dd)
N           -0.45633016773255       -3.65164804614332        0.04077851124946
C           -0.51920377288797       -2.50280831388111        0.02843415093081
C           -0.63292833932131       -1.10296248788147        0.03659736446123
C           -1.91358175667209       -0.54065884377252        0.34655303412309
C           -2.31035099890255        0.76222503238274        0.07639775513484
C           -1.51736514925227        1.84277641748316       -0.35261626709827
N           -0.21681113070459        2.00835858544644       -0.15252990569715
C            0.62040158573757        1.05962104774992        0.17908926679775
N            1.63265967866721        1.25005899186313        0.96610820534374
C            2.81271589639276        0.68280875721304        1.06525222976600
C            3.46944330149805        0.00767172512324        0.04746405353264
C            2.76056210618533       -0.50877075019864       -1.03877570727581
N            1.48280921296729       -0.77491051871983       -1.04014607766784
C            0.49304206993386       -0.35765703272522       -0.30335948171428
H            3.28816745983552       -0.85524189537331       -1.91997546071895
H            4.53655546427155       -0.14201257412119        0.10409105894190
H            3.32260525697342        0.89095774317706        1.99935324521364
N           -2.13352052490419        2.90565318505889       -0.92357120969337
H           -1.58365078889392        3.73344263172790       -1.07276882437400
H           -3.13416680623933        2.98257393474504       -0.90927849895381
H           -3.37104977584998        0.96255821214460        0.16852629880545
N           -2.84090958783985       -1.40120679000156        0.84021472545987
H           -3.80384690908287       -1.12000328673165        0.89030707181044
H           -2.63051700967935       -2.38500787116540        0.86813152562351
