30
 energy: -49.241742210700 gnorm: 0.000418684313 xtb: 6.6.1 (8d0f1dd)
N           -3.55370386955591       -2.14726264730618       -1.32805385675165
C           -2.83967717505373       -1.39670390777483       -0.82009944315699
C           -1.95684643896371       -0.48249535266559       -0.23096960475360
C           -2.34251782630659        0.84373524202767       -0.19148864564414
N           -3.60357497448260        1.18403056446292       -0.60663494761396
H           -4.13325392842708        0.49417947841141       -1.11435269168734
H           -3.79029744504222        2.14758971305483       -0.82343474461842
C           -1.58088648025412        1.90877829622220        0.37963753023108
C           -0.23294230245811        1.98830561729408        0.50796157203721
N            0.33776541695510        3.12716094252546        1.01003372813419
H           -0.24622598158710        3.77276376540866        1.51499495303876
H            1.30660714135938        3.08865969561951        1.27551799904778
C            0.71468615355084        0.95239747945647        0.07476119085449
C            1.84632841641760        1.31279683276785       -0.56592625528635
N            2.84826340733055        0.51819815867086       -1.05030291885788
C            3.25653115092026       -0.55340957403428       -0.47376097062595
N            4.32586110865779       -1.19706163591931       -1.03441349448217
H            4.49377968704096       -2.15753135969188       -0.78953698464891
H            4.56733142208265       -0.91306412505685       -1.96941149917524
C            2.79811148416504       -1.10310031610421        0.80665862734105
C            1.53189878399204       -1.05652873315866        1.23074809207035
C            0.42605568562698       -0.41948056786020        0.51302469279293
C           -0.76520061451131       -1.05358618726160        0.37974734826404
N           -0.91466995573330       -2.35829279964190        0.84807605233398
H           -1.71713383502350       -2.84996342413972        0.48342763422376
H           -0.07581087587206       -2.91623841624256        0.85892713176021
H            1.28060042171941       -1.51906204860359        2.18158222542030
H            3.55408189159202       -1.59912779656543        1.40261608847245
H            1.97551615761657        2.34936587852424       -0.85914560282223
H           -2.15871052745584        2.77987908868005        0.66728955180324
