29
 energy: -51.135540055124 gnorm: 0.000996986556 xtb: 6.6.1 (8d0f1dd)
N           -2.54483917925092       -2.80934314018862       -0.70004450690618
C           -1.56536986718054       -2.23724640566260       -0.52262802910620
C           -0.33000572129103       -1.55510154588935       -0.41376677491211
C            0.80302590784246       -2.36479134825298       -0.73897925896445
C            2.10043599328653       -2.13103494932870       -0.45333115857312
C            2.64780562586124       -0.98832921145559        0.22339225209897
N            3.88813671869420       -1.15657209476504        0.74578489232873
H            4.31357648811912       -2.06531709837602        0.75550176155310
H            4.31857560942588       -0.41222767919265        1.26793366481326
C            2.04486238225047        0.25417766230521        0.29810069171919
C            2.75433087785746        1.27375075890372        0.95722645965236
N            3.35138777963330        2.09095222517816        1.50549453474394
C            0.76551769685474        0.68485946007017       -0.25320453866542
C            0.68572430668775        1.94098040255019       -0.78115300465277
C           -0.45607776448600        2.64015046377534       -1.24556639299486
C           -1.75007027095268        2.46269305195151       -0.88681658373367
C           -2.24656852064474        1.51836124702926        0.06816885915720
N           -3.44609874967487        1.80236907505251        0.62501402054029
H           -3.95498785048366        2.62195815441152        0.34725147180477
H           -3.87206087855840        1.15340538327784        1.26527525973186
C           -1.60792055731509        0.33399293962913        0.40808888532276
C           -2.22560465059009       -0.47321281003840        1.38300621518941
N           -2.71892852071945       -1.06845313448100        2.23489006169039
C           -0.37410274742119       -0.20633658322396       -0.12728887738697
H           -2.48543215548378        3.15768379523177       -1.27105131659976
H           -0.24357516228912        3.46972605422257       -1.90818148543317
H            1.62409318371414        2.46516668788848       -0.91388527401113
H            2.81715966959172       -2.90696299463542       -0.68897171405510
H            0.55641918122384       -3.31542493348572       -1.19593544785094
