28
 energy: -51.421102225203 gnorm: 0.000912946795 xtb: 6.6.1 (8d0f1dd)
N           -4.56561451183100       -2.32135342486905       -0.33982739717385
C           -3.56166034505972       -1.79299606777239       -0.15169778676412
C           -2.34455198469270       -1.12063210968637        0.07140651621458
C           -2.27201656016236        0.21583904763771       -0.33103176278933
C           -1.18908865222010        1.10138477533726        0.00150409941750
C           -1.53381809647044        2.46764329827587       -0.11335445990202
N           -1.86791099130774        3.56081204178706       -0.23657023339400
C            0.13455081622204        0.84436218411019        0.35110396306148
C            0.89597696020416        1.95801392433802        0.84009913242020
C            2.24385966505056        2.15563810424363        0.80055523087200
N            3.17596210439802        1.50481900309880        0.10279669425016
C            3.07566827845279        0.28626038706827       -0.34582356534705
N            4.04285049031053       -0.12608615075776       -1.18570115522544
H            4.79424321744217        0.51230820412188       -1.38478328608780
H            4.13516985336851       -1.09632439314500       -1.43460672075185
C            2.08152368820096       -0.69593279214060        0.06035017436996
C            2.54631802379724       -2.02363678032479        0.01495230282745
N            2.99477254752586       -3.08095175836071       -0.05460828286482
C            0.74771628284237       -0.46956463606056        0.37221858913898
C           -0.00631855632122       -1.60385092530667        0.82462466327061
C           -1.33224579520119       -1.86638549393295        0.72128077060993
H           -1.66427717430815       -2.82126430112554        1.11092203141177
H            0.59766848802528       -2.38136673113882        1.27587703928049
H            2.63766460613851        3.03855756805772        1.29214087099739
H            0.31114393011631        2.74963784835836        1.29096983748633
N           -3.32125449404767        0.74891056313661       -0.99234837395283
H           -4.14578832243498        0.19159438747106       -1.14481315686482
H           -3.35502272563098        1.73480925328061       -1.19137365911397
