25
 energy: -42.655334004119 gnorm: 0.000659280851 xtb: 6.6.1 (8d0f1dd)
N            3.63219579473557        1.81463894224767       -1.52286505375818
C            2.84273776109606        1.17043401334650       -0.98805045930549
C            1.88653861248365        0.37435478283510       -0.33430865248114
C            0.61916802664040        1.01752228245350       -0.05990369502401
C           -0.56349267731206        0.41776155301690        0.13107195244741
C           -1.78284517780491        1.20124389265665        0.48757907687953
N           -2.86380053189045        1.20171533935703       -0.20445880634184
C           -3.18875361337845        0.27987121175828       -1.12971158866314
N           -2.93337135421612       -0.97897615075240       -1.11754551256901
C           -2.00841465107106       -1.55296216124015       -0.31055953742743
C           -0.86065750203297       -1.01069723885150        0.18342818756833
C            0.08836767471699       -1.85812068620074        0.89097502036541
C            1.42513511398377       -1.78919062356471        0.84467177810644
C            2.25902520203108       -0.88548799050895        0.07474333368012
N            3.53571101643648       -1.31868466701143       -0.12938123963656
H            4.13650973128766       -0.78362289689534       -0.73431929325340
H            3.75606842129416       -2.28854622872306        0.01055567296870
H            1.98796403384705       -2.53279850003319        1.39738215922923
H           -0.35270418446381       -2.65199020055434        1.48341920534417
H           -2.16176732150529       -2.62057594220817       -0.18883861430622
H           -3.88741791033324        0.62919044343412       -1.88201877605985
N           -1.71027056375756        1.93066997368508        1.61780668699295
H           -2.51672918455607        2.45798491865008        1.90687632880517
H           -0.82213165828199        2.10771070797528        2.05121997889673
H            0.65006887795138        2.10152633772804       -0.06945917815797
