31
 energy: -48.156905789211 gnorm: 0.000594185777 xtb: 6.6.1 (8d0f1dd)
N            4.26436159490080        0.25615199187256        1.02304452454208
C            2.95252278339523        0.36018112309947        0.56098945993562
C            2.59247392187969       -0.61432273102621       -0.43601012506376
C            1.34864995582284       -0.97383650388399       -0.81971246184807
C            0.10829914496287       -0.49763396065172       -0.17768364097088
C           -0.84950077683240       -1.37208394147328        0.21858703801352
N           -2.05628123589363       -1.09149551315890        0.79951968349463
C           -2.77415448526088       -0.04820916163488        0.54743461420058
C           -2.49752520501757        1.03677277945755       -0.36084876957758
C           -1.26389878419923        1.49610179218936       -0.67305797697045
C           -0.02520498739712        0.95533140644265       -0.08831385965561
C            0.91555200986899        1.78396797484688        0.40951735080797
C            2.19924553778023        1.43026471960509        0.92612649264154
H            2.64792471962369        2.14596773590076        1.60512092386057
H            0.66468589998624        2.83686055073189        0.47647912543121
N           -1.09951673683601        2.57342031053311       -1.50705913814561
H           -0.17132389021086        2.73586804651511       -1.85996568487720
H           -1.86038783606962        2.81490095893098       -2.12142802595271
H           -3.36218111513027        1.54099295408550       -0.77491175752808
N           -4.02727746936574       -0.03610854473687        1.11592608956842
H           -4.16699696682236       -0.71668381359634        1.84499152350520
H           -4.46773994399465        0.85775047038663        1.25402791592553
N           -0.63639067959283       -2.76520618795502        0.10587296350520
H           -1.35773126845640       -3.25900423701186        0.61601186999181
H            0.28536423834261       -3.05177559147589        0.41232771352439
N            1.14397644949593       -1.78352142347395       -1.91738225540982
H            0.29146564680532       -2.32250748046271       -1.90043658791571
H            1.95135483392297       -2.26173100140766       -2.28580452058239
H            3.43188250363720       -1.09385215756275       -0.92803060393943
H            4.64360876230085       -0.67754611576411        1.04421898941055
H            4.46619615195512        0.79064459027868        1.85386516337805
