26
 energy: -42.380369362616 gnorm: 0.000642691949 xtb: 6.6.1 (8d0f1dd)
N           -0.50430757422880       -3.55130561068563        0.77382499189907
C           -0.55673364991445       -2.43021864997521        0.50942719411636
C           -0.67638428936327       -1.06962900786682        0.19309468506552
C            0.56706620975059       -0.37435707091207       -0.09131302715302
C            1.58311097503645       -1.11371784050511       -0.64542103015776
C            2.93412342286745       -0.78598618178494       -0.88431311425825
C            3.66557633766354        0.21076264060571       -0.31673431679381
C            3.18518973076540        1.15141613222821        0.62918274657909
C            1.90489503151647        1.49302331899431        0.89274085657140
C            0.67400738678617        1.02500548894206        0.28910332014848
C           -0.34255770341496        1.92757056700143        0.18797352379422
C           -1.66413661232907        1.71990607130485       -0.33372854742804
N           -2.38727544428660        0.63782407106895       -0.28991770455632
C           -1.97161825548168       -0.55808200310014        0.17799545283676
N           -3.00331052883334       -1.34139827014695        0.58295640871668
H           -2.84687300354807       -2.31716560558633        0.76966621630973
H           -3.93350434714147       -1.01755963585665        0.38586402578114
N           -2.28331573850722        2.80851732026370       -0.84324945179550
H           -3.20605984993213        2.70012523236202       -1.22507246319282
H           -1.79695797119031        3.67895854541187       -0.95104862573173
H           -0.11583336138757        2.95417254944061        0.45101621737811
H            1.74935649821410        2.26949042866891        1.63359048467639
H            3.95071046134948        1.69216821379082        1.17359829855489
H            4.72174430859902        0.26042472600769       -0.54493399523374
H            3.45993185621317       -1.47217069954687       -1.53731417253182
H            1.29867003539788       -2.10405945882479       -0.98246796339671
