28
 energy: -45.814703377614 gnorm: 0.000431003387 xtb: 6.6.1 (8d0f1dd)
N           -5.16748868972712       -0.85193983665097        0.01509885727508
C           -4.03590471406637       -0.64813288636763       -0.07155751648503
C           -2.66499986174307       -0.38694098536444       -0.15686923263414
C           -1.86708364248308       -1.27216783638623       -0.89866324482360
N           -0.58522954505529       -1.41057281953523       -0.88555329803302
C            0.40226689692385       -0.71756175560502       -0.29841967674397
C            1.48468101712149       -1.48618922205260        0.08815050160323
C            2.81124078025404       -1.12854390589046        0.38299042001733
N            3.60211513345762       -2.11953108063554        0.89552331230488
H            4.59994245284418       -1.99953435348051        0.89241862402545
H            3.25659464639801       -3.06293238715008        0.88824868380392
C            3.41203907310790        0.09641040840276        0.12817476871089
C            2.80307587167880        1.28526587135870       -0.29057879845453
N            3.64514749958214        2.34623932105566       -0.51331264009746
H            4.62491488453738        2.16287686830003       -0.64005440662903
H            3.27710233381361        3.15822533445772       -0.97710090863716
C            1.43862984895011        1.55985579906935       -0.35383823217108
C            0.32602916530212        0.73091773136332       -0.17299872971838
C           -0.88809493210146        1.35404457541652        0.15870468398595
C           -2.17573212733126        0.85561288015199        0.33514979140254
N           -3.08276023652170        1.66773071364427        0.94744607192421
H           -4.05476972910848        1.40745777552053        0.93601575039758
H           -2.85158835245290        2.63026916366551        1.11859376151670
H           -0.78568861644092        2.40188289960452        0.42426294760225
H            1.20460067273007        2.60874172436823       -0.50639235037463
H            4.48452539812947        0.14447151241871        0.27653683807057
H            1.27730732787602       -2.55015188895912        0.10410496708757
H           -2.38494108347297       -1.98740271581915       -1.53396452692308
