30
 energy: -54.868209217234 gnorm: 0.000615150907 xtb: 6.6.1 (8d0f1dd)
N           -0.15471086964171        2.99272574951164       -2.18666760456622
C            0.20641320335698        2.15436362608075       -1.48927923323660
C            0.67229355052097        1.06223713510285       -0.72580468095760
C            2.03890137079097        0.94218542465063       -0.59794080835646
C            2.77507255568876       -0.02307043240092        0.09486053483088
C            4.14267013098374        0.25349487220919        0.27945104459895
N            5.26367973755460        0.45257040117602        0.44373015527963
C            2.31315311940079       -1.28801064293357        0.54151981820539
N            3.19766391749113       -2.07623708522022        1.19803235658605
H            4.15269609480282       -1.77868069465875        1.30675342376709
H            2.95792178729876       -3.02610918165103        1.41807300179612
C            1.05687379371427       -1.83537375281734        0.25897763114283
C           -0.12111550767494       -1.23941599423490       -0.16406944851454
N           -1.06396547917217       -2.05461525962444       -0.62972947683305
C           -2.36519231072416       -1.98258521382731       -0.59960891174672
N           -3.01830765394544       -2.90790176146582       -1.34328269468561
H           -4.01483948172738       -2.86707795036780       -1.44873454111705
H           -2.48083488911971       -3.46018210362501       -1.98784439747922
C           -3.13993002327126       -1.14415278279621        0.24680133338276
C           -2.73949304549301        0.08632710097017        0.70623751903364
N           -3.56368597269182        0.78571281485088        1.52740942555638
H           -3.37758606495888        1.75812630745711        1.70898699938663
H           -4.49513774818759        0.44657453754782        1.69139150783640
C           -1.51837762735589        0.75663229292876        0.29954596677916
C           -1.52388852845452        2.14952983755525        0.52902651666420
N           -1.58483148491309        3.26122188215827        0.81704092179683
C           -0.34288794969466        0.20059691433446       -0.17684281542363
H           -4.14644228276025       -1.46690074064987        0.47477812918686
H            0.96897315760138       -2.90425741581146        0.41316105401368
H            2.62154084388361        1.74792087934783       -1.03164410022837
