33
 energy: -62.838969753788 gnorm: 0.000445346935 xtb: 6.6.1 (8d0f1dd)
N           -1.60405398888503       -3.10714357303080        1.86296655821526
C           -1.62916834398166       -2.16170120551254        1.20714072522629
C           -1.72188551925534       -0.93567928810408        0.52182861485141
C           -3.01426537531668       -0.35148002308973        0.49663469600564
N           -3.42613144387241        0.63359114487677       -0.29113682698833
C           -2.67265038841707        1.56145878710712       -0.84416349147948
N           -3.31333674967913        2.36728467469602       -1.71480989474306
H           -4.29616510056606        2.22431146614870       -1.86620121669477
H           -2.86541973701789        3.18391881795718       -2.08853537685770
C           -1.32466490141220        1.87635954497892       -0.52937077971272
C           -0.33320980645020        1.04003848748710       -0.06596308139676
C           -0.51235602688606       -0.40358056451471        0.00218459982887
C            0.46658753355013       -1.32070769062501       -0.40299471433188
C           -0.01898345584261       -2.59961169218738       -0.75736706411389
N           -0.36401593439363       -3.62251012380284       -1.15453428297672
C            1.86597328955486       -1.14751387454591       -0.61152601513517
C            2.63407226919144       -0.08111340294236       -0.11891180797773
C            4.02892712295202       -0.22351317326440       -0.22261699579181
N            5.17142910362143       -0.33853036184943       -0.31192856616240
C            2.18017513557576        1.12889085339288        0.47990609412292
C            0.88078148619746        1.64590622242074        0.39503286374536
C            0.73082385707230        2.97256082287935        0.83978632423375
N            0.63260771588297        4.05949027628831        1.20674233730842
N            3.11958766908356        1.88038951929654        1.10069835904912
H            4.08672156526648        1.60607173923191        1.06801390121109
H            2.88502581711328        2.79919164898474        1.43670738635990
N            2.51471727138724       -2.13760423955735       -1.26362978521798
H            2.02422009163381       -2.97972391569774       -1.51524566337993
H            3.51947924214489       -2.12517621075763       -1.31969105831756
H           -1.04059378586983        2.90420517937112       -0.71707688203268
N           -3.98828672992735       -0.90734347932799        1.24307780643035
H           -4.92851484831462       -0.57763890191988        1.11287937211099
H           -3.81957148892114       -1.75590500614351        1.75646192881267
