28
 energy: -49.848806779446 gnorm: 0.000688222856 xtb: 6.6.1 (8d0f1dd)
N           -1.24398145239186       -3.50644874916875        0.89873891747646
C           -1.22157630550842       -2.37759394774172        0.66354979571704
C           -1.22809394899961       -1.00719061028707        0.36507127943072
C           -2.47534096288968       -0.34179903204888        0.51782044700348
C           -2.80225830059518        0.89944940507765       -0.01817917287103
C           -1.92211323127787        1.77197291761741       -0.66946627325147
N           -0.61763913852371        1.85849623372946       -0.48694530301854
C            0.22794603291658        0.99778283432287        0.01781448293559
N            1.31037373917770        1.48803122662163        0.58751198012121
C            2.50906130634399        0.96070875164992        0.67677646750177
N            3.07551528460674        0.04855050502130       -0.11675817756732
C            2.38648575641601       -0.91056802483201       -0.71661973408680
N            3.12688703435860       -1.70038199585145       -1.53581675732991
H            4.12236921772261       -1.56266982629367       -1.53308899918514
H            2.76081419732411       -2.58363542934064       -1.84263894725580
C            1.03295311537731       -1.26694402582576       -0.51791733112456
C            0.01168098677297       -0.46055104650150       -0.04512812039330
H            0.76947989418623       -2.28250117670300       -0.78993377940277
N            3.33195188969249        1.49590637987768        1.61127280876574
H            4.31424498868672        1.30329410195529        1.52747650374365
H            3.03429611512327        2.34013557024095        2.06724013362804
N           -2.43790248270171        2.71076561656293       -1.51373271534201
H           -3.42092881697961        2.91453371140293       -1.47639839772161
H           -1.81654122889859        3.44979168617687       -1.79489215528828
H           -3.84849827647042        1.17783970049541        0.00181259669685
N           -3.46128157660197       -1.02617860383357        1.16796782016293
H           -4.40891005401961       -0.70152088451195        1.08903976860651
H           -3.32004141784301       -2.00251117322375        1.36860686775014
