30
 energy: -54.874045380979 gnorm: 0.000602812649 xtb: 6.6.1 (8d0f1dd)
N           -1.22824339789980       -3.73194746666694       -0.18643657778924
C           -0.72362559845269       -2.69877646522489       -0.15880122314666
C           -0.07304148291439       -1.44803694557351       -0.14325212113539
C            1.32994846333464       -1.47022387939862       -0.37403099047914
N            1.84326958375644       -2.62623828740385       -0.85183316189389
H            1.24461961663262       -3.42715493214694       -0.96524882523543
H            2.84054162274332       -2.75082970994601       -0.90495165125807
C            2.22800768941931       -0.43581428151627       -0.06314723489727
C            3.59185374432804       -0.75271538560527       -0.18238429055918
N            4.70929360668535       -1.01532376441066       -0.28090486394072
C            1.94329631560529        0.88622426501909        0.39383867373287
N            2.98994717384785        1.58248843969264        0.89843326438922
H            3.91816170874696        1.19664484081658        0.85671939563889
H            2.87880770593206        2.55898991690930        1.11490319531504
C            0.71375099170151        1.54842447491672        0.28430468055399
C            0.72447767393756        2.92205210725336        0.58602439470823
N            0.75390417268449        4.04402194346478        0.84339258788816
C           -0.55319543108970        1.03400586200728       -0.13452176761246
C           -1.45036269093584        1.87966666347509       -0.76117541449288
C           -2.79379119627057        1.66425985977899       -1.12298375937250
C           -3.67124181382912        0.75364947071789       -0.61188386518451
C           -3.30376286201520       -0.15290141717205        0.43178319129993
N           -2.11343404274095       -0.65219447278479        0.58195060358737
C           -0.92173112193453       -0.35889441197574        0.09087483170231
N           -4.25242804660678       -0.57377306800568        1.29469400106559
H           -4.01257073067211       -1.28870818325683        1.95933290773231
H           -5.21962941823037       -0.36375534808660        1.12882162663335
H           -4.70858384635475        0.78434131564481       -0.91110163702522
H           -3.19516518684310        2.38034538855635       -1.82959422090757
H           -1.04472448267003        2.83414044772582       -1.07411426601659
