28
 energy: -46.611470258704 gnorm: 0.000739657503 xtb: 6.6.1 (8d0f1dd)
N           -5.43738619430499       -0.73111418958576        0.05194738647604
C           -4.29153313672060       -0.63828340377057        0.05714974160163
C           -2.88830355302070       -0.53751719999904        0.07090071167355
C           -2.32356982292299        0.66307385355432       -0.32562186521155
C           -0.98868623678692        1.05465024772118       -0.29373665602032
C           -0.80752119764192        2.38700749335107       -0.72440281544673
N           -0.69436800924152        3.46883328092194       -1.10029048269112
C            0.21580328036689        0.35774659874529        0.06361657379787
C            1.29760409937191        1.19023678237742        0.35542331334307
C            2.68098961476320        0.98043426656524        0.39466297995226
N            3.43529564018846        2.03893312534502        0.78770336207530
H            3.00269905283889        2.93727753491481        0.91500210111937
H            4.43335900898300        2.01349035341276        0.67716018584024
C            3.36947995236838       -0.17536740092110        0.01005574919514
C            2.81359069540531       -1.41119050099569       -0.28172250079804
N            3.66296915684599       -2.40384810856924       -0.65475243596333
H            4.62906098552711       -2.20039586267708       -0.83520250192869
H            3.30435819056077       -3.29644379715350       -0.94131625553031
C            1.46389816707572       -1.79344294153488       -0.11506392464914
C            0.29801939929515       -1.08281554044427        0.11055255765706
C           -0.83041447347376       -1.90894092534153        0.45332624668423
C           -2.16822999568858       -1.68420967820360        0.48363157958226
H           -2.78510971357191       -2.50995994857698        0.81960545777147
H           -0.53520903468481       -2.90488601672785        0.76402771713033
H            1.32395646972876       -2.86708107930378       -0.18760231313505
H            4.44796687581075       -0.09963800783902       -0.04789874969200
H            1.02438575714795        2.22401973816053        0.53626492155227
H           -3.01704017902587        1.42694288137979       -0.66327996918750
