24
 energy: -42.928354933907 gnorm: 0.000671181866 xtb: 6.6.1 (8d0f1dd)
N           -4.01548530884387       -1.23260237803784       -0.74309844165535
C           -2.99128760845533       -0.77444282784687       -0.48458108364225
C           -1.75159749836341       -0.20373342824112       -0.15863342130976
C           -1.79678741803377        1.13563746044952        0.44775565249490
N           -0.94609025441394        2.08947928607503        0.28949150175940
C            0.24817460304876        1.97158397632541       -0.34337864487572
C            1.04996048891029        0.89231489445388       -0.37596038676441
C            2.37629880984556        0.83495483048058       -1.02565843602225
N            3.44414707934858        0.49597725074390       -0.43956561485207
C            3.53795858268244       -0.07122797484784        0.78075083065311
N            2.77949024571413       -0.99956392576995        1.24471719555220
C            1.56304956591754       -1.29427918247274        0.72083703076708
C            0.71276441993607       -0.46170302034545        0.05842714547804
C           -0.60994210908069       -0.93802552998700       -0.37191042881248
N           -0.65606681695791       -2.14784502172405       -0.97127141956340
H           -1.53767558803098       -2.53385814661675       -1.26699741528713
H            0.17494622449085       -2.70672137948782       -1.04444210961254
H            1.21648857665748       -2.28389110759091        1.00105521965314
H            4.45409947566324        0.13976432984247        1.31821587192247
H            2.43844115629461        1.05321343062761       -2.08898968677503
H            0.61013103201607        2.91103705882216       -0.74492862844328
N           -2.89509830211353        1.39996261649578        1.20074320097266
H           -3.70280505171101        0.80444819691979        1.13376908251460
H           -3.02528862202098        2.35350814083285        1.49263229504764
