27
 energy: -52.481918084908 gnorm: 0.000795995721 xtb: 6.6.1 (8d0f1dd)
N           -2.79978528004449       -3.72185263056921       -0.11305742459546
C           -2.49163400267163       -2.61723016722514       -0.15387799717152
C           -2.15734753599424       -1.24621579405172       -0.21444693955264
C           -3.10389908824107       -0.41944942745187       -0.90265003378540
N           -3.33790953673789        0.82831119719859       -0.70665129023243
C           -2.66548901152197        1.61703562820902        0.14149936699353
C           -1.33675324004808        1.56111891394943        0.44535618892240
C           -0.79798973135358        2.56000788582079        1.28778816642126
N           -0.38185367477336        3.32875232824811        2.03082592100749
C           -0.40275981642989        0.49364330986959        0.06177681990284
C            0.87267011694271        0.86179014501471       -0.28979038434948
C            1.06601550993345        2.23273176576330       -0.60164935344567
N            1.26756003644650        3.30860904218286       -0.94594179753902
C            2.05477587489110        0.04636043676252       -0.47557477757566
N            3.05720085232002        0.57840693217719       -1.19833930312798
H            2.99684570952832        1.52082029328685       -1.54834961473771
H            3.93790243475233        0.09287303060086       -1.26150794747777
C            2.23471957788756       -1.19044305092270        0.14265439980376
C            3.52118542416878       -1.76543488917293        0.05409169534381
N            4.57311470605024       -2.21927439749036       -0.02625825809727
C            1.28005432913460       -1.93587868321578        0.88172964109698
C           -0.07161504286558       -1.82523750697561        0.89036355955518
C           -0.89512416317962       -0.85825107500542        0.22664033016039
H           -0.62017885740861       -2.58619179121382        1.43117061799882
H            1.69880195289416       -2.76994268562357        1.43158143234017
H           -3.25147101852432        2.44321571198799        0.52836196214979
H           -3.75818900655632       -0.91092959865309       -1.61579055270786
