31
 energy: -58.610038062081 gnorm: 0.000569167058 xtb: 6.6.1 (8d0f1dd)
N           -5.46356822461872       -0.50087383794586        0.16371006028390
C           -4.31293335662125       -0.45550225660107        0.12461060442213
C           -2.90874044258411       -0.40494321182785        0.08210618039647
C           -2.23927264591874       -1.53396646892594        0.62646790844989
C           -0.88806626670931       -1.84537881778591        0.47889025008388
C            0.14551938027321       -1.04416156461639        0.01709057123299
N            1.22425222033941       -1.62876512843443       -0.46658228226416
C            2.45159577550553       -1.20991675793593       -0.67881790861371
N            3.16405207403075       -1.91709718463240       -1.58642703850607
H            4.15922756338547       -1.78827324979632       -1.64857623479510
H            2.74805448288017       -2.74191400529856       -1.98131566552862
C            3.10739726831603       -0.17861079574865        0.04842269803001
C            4.50304877430323       -0.12867917451556        0.06211662061408
N            5.65481183101191       -0.09317697676892        0.07360964081758
C            2.36366659858234        0.79677389504776        0.75347206507726
N            1.10438168050554        1.10390764752061        0.50944285460963
C            0.09245152880868        0.42861461344311        0.02781705593979
C           -1.01110139692848        1.15669157427068       -0.45698949156244
C           -0.73219635710910        2.48792245453685       -0.82425266899274
N           -0.52690523964775        3.57211683365012       -1.14832647136068
C           -2.36183535276537        0.74838824725939       -0.52631922628710
N           -3.22311730775899        1.59015001766077       -1.14609516599104
H           -4.21494129846128        1.43390937359950       -1.07978697858436
H           -2.89457121759114        2.48808898184484       -1.46043206713676
N            2.98342423395161        1.57080320471509        1.67493741313779
H            2.49256674742601        2.38368234980768        2.00621942751148
H            3.98795992266633        1.55767848014774        1.73000030085216
H           -0.61097867724715       -2.86975552873771        0.69447990056139
N           -3.01263470673819       -2.45561585650474        1.25456418174069
H           -2.61133540669707       -3.33457096697694        1.52796294506686
H           -4.01473062088340       -2.36815128785243        1.24528390329526
