29
 energy: -48.743221926883 gnorm: 0.000587141398 xtb: 6.6.1 (8d0f1dd)
N           -4.07393029657480       -0.32018355111711        1.22366264671103
C           -2.84795684304525       -0.41295451810323        0.60767991380586
N           -2.14950203809414       -1.45653176738416        0.90805016974446
C           -0.95302686789666       -1.76178103486847        0.33175244194263
C            0.00149489843857       -0.91751511250037       -0.10057261892229
C            1.28088016432790       -1.38817967965665       -0.67257758792502
N            2.44655863880029       -1.04064912099455       -0.25252952540214
C            2.66231551429037       -0.04684061262882        0.64970228083378
N            2.05930469556498        1.09425734693647        0.75736364813807
C            0.87153086586855        1.40047021377386        0.16310942198102
N            0.70107850627665        2.79356060715169        0.00541138455397
H            1.45010982751072        3.27797485064451        0.48393469521685
H           -0.20174009630815        3.12436586874325        0.32258172550326
C           -0.11971313877223        0.53768666061346       -0.19481019020248
C           -1.37141211587517        0.99960562271999       -0.82015223206191
C           -2.59317636261645        0.58164052501085       -0.41153515940030
H           -3.47164268169863        1.02706562032211       -0.86416090187494
N           -1.22047528415735        1.84812462576217       -1.88409507753265
H           -2.04199601657055        2.30040023340442       -2.25085912076332
H           -0.35821485974303        2.36760224002607       -1.92471922590424
N            3.74655831034133       -0.25662245559056        1.45516895791195
H            4.39236776048574       -0.96823008463933        1.16006698726397
H            4.12394003134626        0.55675983594884        1.91034447820969
N            1.19238734098063       -2.21513146800730       -1.73358557547030
H            0.30477455445416       -2.60834188519954       -1.98794231327234
H            2.03324339803964       -2.54352584530262       -2.17623689405866
H           -0.74678487854392       -2.82829033152317        0.34308423663029
H           -4.50308984797087        0.58711419804061        1.28784339006285
H           -4.19858044685945       -0.93209686158231        2.01357670718075
