24
 energy: -42.947614183932 gnorm: 0.000475585129 xtb: 6.6.1 (8d0f1dd)
N           -4.73169813079982       -1.13052891416910        0.32127601089058
C           -3.64075069990208       -0.84161224277730        0.09357148560059
C           -2.31125785067468       -0.47358186735849       -0.16243700091213
C           -1.86992503024397        0.78597598490748        0.30902994631013
C           -0.65315273152652        1.40307007999297       -0.04089821663451
C            0.49272637033338        0.83447016550663       -0.55559553062085
N            1.45848621262981        1.62655501684753       -1.04117816905682
C            2.73594110619876        1.45558896660910       -0.96343148159489
N            3.44058887591395        0.67970285337081       -0.15322353788062
C            2.99206107531736       -0.47454292636765        0.31760185552713
N            3.81941820755472       -1.08888021054807        1.18940302490678
H            4.70301437525021       -0.65366697705797        1.38982015404200
H            3.65729909553100       -2.03813966360806        1.47310929338945
C            1.82848514677566       -1.17887048461671       -0.09643403983368
C            0.67146730748843       -0.62180099410634       -0.59395268425043
N           -0.27677760966308       -1.41847727488741       -1.10689916007686
C           -1.55691406332944       -1.32734586497484       -0.99692259430018
H           -2.11164243237736       -2.06830363087020       -1.56606308669908
H            1.81639668281920       -2.24989693862593        0.05858065365769
H            3.33351646865332        2.14144342133909       -1.55819116742238
H           -0.58745417545824        2.46649089399247        0.15448061274062
N           -2.73470599353159        1.51333952661035        1.05311703949380
H           -3.66686608193179        1.16996701603287        1.21529079489763
H           -2.52531007122626        2.47022168795803        1.27545215092665
