26
 energy: -47.198568496189 gnorm: 0.000561814846 xtb: 6.6.1 (8d0f1dd)
N           -5.59138801292393       -0.15516477035662       -0.22514694421007
C           -4.44981721535062       -0.04627410860337       -0.16218843613914
C           -3.04800672995732        0.09291814025622       -0.08327397269083
C           -2.48713755083662        1.18341039651104       -0.75094802481237
C           -1.18855067708312        1.63272148794728       -0.70053031798130
C           -0.04698686782102        1.06128890797958       -0.10974511608766
N            0.93488483751626        1.91323943523319        0.14405465744677
C            2.21904847459844        1.72352406510901        0.31739640987032
N            2.98349697464012        0.76479643888709       -0.23150192919453
C            2.53920406148471       -0.45507030694137       -0.42135626208764
N            3.38883532554353       -1.29180033602857       -1.04171633478118
H            4.30066621538752       -0.94492743616715       -1.28464707293400
H            3.19739710253522       -2.27831393569093       -1.08917103534941
C            1.29147194799090       -1.01270948938587        0.05476083754947
C            1.32022060558723       -2.40705085170955        0.22262018321571
N            1.41703964945019       -3.54819935711905        0.34644489881331
C            0.07007631909083       -0.34552085704831        0.23964046855005
C           -1.01631961423361       -1.08727850570383        0.77242928729178
C           -2.36321371553623       -0.87606849104408        0.67359515250008
H           -2.99681426240346       -1.59725252136981        1.17688177490851
H           -0.72184442635284       -1.98572880202859        1.30319583583284
N            2.88897394264784        2.67557276946892        0.99047138308214
H            3.89269269213544        2.65375629940554        0.98929122772792
H            2.39733417960612        3.49546668556505        1.29801659114237
H           -0.99208012264736        2.59921113202426       -1.14731884241621
H           -3.18545846016968        1.80038964590916       -1.30472640354718
