23
 energy: -38.424173289067 gnorm: 0.000665878213 xtb: 6.6.1 (8d0f1dd)
N           -2.70694475927679       -2.00972493666917        0.92568936634591
C           -1.92092067053759       -1.06178648100214        0.37054438742947
N           -2.47936979992576        0.12027690204659        0.24456199277601
C           -1.81695871955507        1.15402321077398       -0.31720243880422
N           -0.55541362874487        1.46581313907221       -0.22422642643454
C            0.50158429270123        0.70193861765898        0.06318567753436
C            1.58445521542823        1.33691657335759        0.66003599326199
C            2.87909355684094        0.85001770158480        0.85105503436320
N            3.51981872820163       -0.10922297540238        0.24258001199508
C            2.97140951687888       -0.97177669024640       -0.62129919464057
C            1.67049886350744       -1.33577052821071       -0.80180149995772
C            0.49289832650400       -0.72347058753434       -0.26314024669751
C           -0.63917917149824       -1.48390619312028       -0.09912092168649
H           -0.53253885596368       -2.55175333818557       -0.25189490267954
H            1.48925291424625       -2.21550123535922       -1.40894111944252
H            3.72415899493442       -1.53569687666432       -1.16663760649105
H            3.50609322838523        1.40852781563448        1.54299835722422
H            1.37014498727551        2.32394430444465        1.04987969040917
N           -2.61471473878898        2.04058375380585       -0.95528325975053
H           -3.60803306059221        1.94891115111141       -0.84054310303436
H           -2.22354908691376        2.92608573732926       -1.22358589104877
H           -2.40539323967384       -2.96388855147044        0.99031900769015
H           -3.63455870983316       -1.75495598865574        1.21351647373884
