29
 energy: -45.527248319530 gnorm: 0.000906217620 xtb: 6.6.1 (8d0f1dd)
N           -0.49513288410697       -3.58291517801283       -1.47966968578830
C           -0.78173723664167       -2.57219993888464       -1.00641284425866
C           -1.16717700877128       -1.33740676869377       -0.45574512928352
C           -2.53231340947523       -1.16359583692004       -0.34299923861447
C           -3.24442207266878       -0.07311832658369        0.12617592882551
C           -2.73141923583477        1.20392529026015        0.33748910367580
C           -1.41663479187889        1.63649003357572        0.09460444982029
C           -0.21764788519086        0.96530640722632       -0.11058791733930
C            0.88726284573549        1.79872258926037       -0.43759607150635
C            2.24964788086039        1.62526911385324       -0.33024163831823
C            2.93823954966933        0.52728809130248        0.23280117456327
C            2.40404934309824       -0.69102944363582        0.57440022551456
C            1.07674267403180       -1.13434923492284        0.32267880498348
C           -0.06643549027206       -0.47359769819178       -0.04860114202342
H            0.96508027966139       -2.20779032060864        0.43379187319965
N            3.22158093132815       -1.61158233556024        1.17236046581494
H            2.92294983343463       -2.57144324411720        1.19571738187347
H            4.21400734648475       -1.45039065487923        1.16358139239363
H            4.00045280904138        0.66502652481732        0.39317933833717
N            3.04313836831242        2.69195259010360       -0.68881073496812
H            2.63124359293598        3.40459590029425       -1.26720465351362
H            4.02131342548221        2.51681217461265       -0.84231934318892
H            0.59770328904375        2.78003681751580       -0.80059115900457
H           -1.31442242719331        2.71667733809355        0.13424022635231
N           -3.62605361807298        2.18080861224855        0.68912161267752
H           -3.27568905140117        3.06574939393031        1.01188236894807
H           -4.53106590776132        1.90141314342523        1.02516517170221
H           -4.31022903298911       -0.20032700576941        0.26290843552489
H           -3.12586399845934       -2.02436638914001       -0.63344296660036
