31
 energy: -52.984662900652 gnorm: 0.000638132516 xtb: 6.6.1 (8d0f1dd)
N           -4.01500651603526       -2.23065924862605       -1.27209190879836
C           -3.18947566739781       -1.54295411708028       -0.85515534002722
C           -2.20999295577085       -0.69205825660501       -0.32733250580696
C           -1.00302923870177       -1.31055380067473        0.15087249175306
C            0.19476073857072       -0.71411282879803        0.34119114643707
C            1.32002068411187       -1.48676609901143        0.89247177300676
N            1.00258489392622       -2.37667793304798        1.87922109772392
H            1.74472695700824       -2.80057683104145        2.40931345949967
H            0.10157515454569       -2.30356289276700        2.31787008937223
C            2.58601162903295       -1.40679205308586        0.41473336243257
C            3.03037566042779       -0.56382238224655       -0.66641110727960
N            2.58598506951967        0.59833068005381       -1.02130885269361
C            1.55687708139552        1.25675519743436       -0.41135885627034
N            1.71403135785334        2.64987519235727       -0.47562126199094
H            0.86194720384156        3.15897808936872       -0.66781318665702
H            2.45199430209027        2.89052182519060       -1.12340597544981
C            0.44877559719481        0.71234551107844        0.15233379553925
C           -0.58528661456046        1.55928924719060        0.78811202312374
N           -1.84274447265148        1.55860378118908        0.51852957028587
C           -2.50278442200768        0.66081597363921       -0.25009340821652
N           -3.60621592681271        1.17604706044059       -0.87588367969011
H           -4.30343011104642        0.52359105881158       -1.19684060463024
H           -3.93040190474447        2.06792545412286       -0.54166745470485
N           -0.14377791451371        2.36945085078695        1.77663716094840
H           -0.80048020707787        2.99568988254997        2.21167668005153
H            0.83671750760965        2.59042756576286        1.80818097685258
N            4.15772694180347       -0.98811502492571       -1.31712235863236
H            4.37105738268158       -1.97047310025681       -1.31484260059472
H            4.40124006536661       -0.47102745354188       -2.14560163194658
H            3.33087124114039       -2.07947118419002        0.82227031120509
H           -1.06714035039950       -2.38295617027788        0.29355886265793
