27
 energy: -50.925980720705 gnorm: 0.000859784054 xtb: 6.6.1 (8d0f1dd)
N            0.18306153814304       -3.53041880865549        1.58213306022129
C           -0.13870754662174       -2.51608694515879        1.15078234726146
C           -0.52806267492387       -1.26667430365752        0.62629884056879
C           -1.84916918114480       -0.86522178339773        0.82962775336151
C           -2.53175041274593        0.18846608401927        0.24314546738099
C           -3.91409401274328        0.29431510961393        0.46939778178620
N           -5.04638315051748        0.41592550378210        0.63202659551280
C           -1.95470850655567        1.14836650204356       -0.66684194194922
N           -0.70699476766441        1.53151701258371       -0.66541283983860
C            0.33515040995778        0.95529038187292       -0.09929630054669
N            1.28622849340872        1.68643871882540        0.40110105871262
C            2.56419387271251        1.40168264584851        0.63699242988418
C            3.32675443856243        0.47498592043770       -0.08171861838621
C            2.74577637856971       -0.58738754965901       -0.78147483353229
N            1.54319001270846       -1.08864638380341       -0.51761452561625
C            0.48017638024901       -0.52077191123312       -0.03099474748114
N            3.46776156410686       -1.28389770161828       -1.69703818584687
H            4.46440741020561       -1.16040589020614       -1.72839580066286
H            3.09676847962019       -2.17238509031773       -1.98973463206388
H            4.40353633302354        0.56237956020676       -0.06799419333904
N            3.15667492622607        2.19130640673568        1.56646795872706
H            4.15726825000279        2.20922351178018        1.64350558080097
H            2.62905662921863        2.96770798968120        1.92598650145050
N           -2.77763939328190        1.76598811685036       -1.53790334913450
H           -2.40566814435134        2.51773108055010       -2.09198710220986
H           -3.77412207243105        1.65624241696768       -1.45406740536800
H           -2.44702096793116       -1.52577622109440        1.44882455820633
