25
 energy: -42.663375250274 gnorm: 0.000764478179 xtb: 6.6.1 (8d0f1dd)
N           -0.60361741469101       -3.64929599016741        1.27449505928033
C           -0.06556972851264       -2.68973027502533        0.93747494331828
C            0.60307806308025       -1.51973046502034        0.53144862376609
C           -0.22982324282340       -0.37461567707078        0.27857982807206
C           -1.53513802026722       -0.56988528276361       -0.11642903496286
C           -2.53420031182910        0.41099657132622       -0.38711596675879
N           -2.65712804809875        1.61573504260435        0.14380485433061
C           -1.74017398960780        2.09220728337241        0.98262831877765
N           -0.47325484391010        1.89268798826756        1.03320470042458
C            0.29955305942028        0.97630525293867        0.41457976736065
C            1.55187819610870        1.39590069629134        0.02864622913204
C            2.68760339458840        0.65164527429692       -0.34705018671048
N            3.72417218741073        1.35731766041532       -0.87398862794352
H            4.61926607442512        0.91664428188608       -0.99137628339766
H            3.68894604251784        2.36095802112544       -0.88563650238062
C            2.88069375911606       -0.71590939506038       -0.14254502505275
C            1.97031055763945       -1.63827220099118        0.34401855299390
H            2.36961013301914       -2.62708691754391        0.54335537947091
H            3.87438820326353       -1.08996371615354       -0.35396472658214
H            1.68157490419361        2.47171837997793        0.04788870384284
H           -2.11889896537353        2.84028570922328        1.67557889958897
N           -3.54656508443898        0.04375950828226       -1.20283694271357
H           -4.32019220954293        0.67821761499317       -1.30259265103258
H           -3.65136548531853       -0.91180132903415       -1.49297491438150
H           -1.82314374266489       -1.59168611526509       -0.33467059684328
