25
 energy: -48.263715222343 gnorm: 0.000645844638 xtb: 6.6.1 (8d0f1dd)
N            5.66525129352588        0.47221377135087       -0.21488769508826
C            4.51965591843350        0.44987794513818       -0.16312551343536
C            3.10498944839897        0.42916398320986       -0.10528399787748
C            2.46035417609702        1.54731061044677       -0.67921451009355
C            1.14547453401332        1.90953767931284       -0.59170308284248
C            0.10631522128780        1.17393620015839        0.02078198893576
N           -0.90105692193776        1.79767346872110        0.56053797144412
C           -2.11311877132209        1.45244021929329        0.91482884364728
C           -2.87494526934539        0.45001199505129        0.32634651589222
C           -4.26945643825535        0.41668503771710        0.47543608413991
N           -5.41326279443238        0.36042726768874        0.57082446994186
C           -2.23781439320898       -0.56285844930359       -0.47147748126584
N           -0.98148816466186       -0.90810923017204       -0.32171249175540
C            0.09787535083316       -0.29589747657194        0.09109239102641
C            1.19836634418159       -1.05371995074023        0.55234719154031
C            0.89462763706497       -2.34999814954523        1.02910462119634
N            0.64045844607525       -3.39576234493189        1.42575763505104
C            2.53918184372892       -0.68300080703938        0.50857639624610
H            3.23691471669330       -1.40577112023862        0.91721734109331
N           -2.97111080692051       -1.28779755226834       -1.33218835282802
H           -3.97219845883316       -1.18624389256372       -1.34691783008664
H           -2.54887447999096       -2.08394168271044       -1.77947651398263
H           -2.57370032718553        2.11183612120543        1.64207885001276
H            0.86494771990921        2.89157893116748       -0.94829323029796
H            3.12460131495335        2.25212750581991       -1.16529143780811
