25
 energy: -42.655770448026 gnorm: 0.000712516115 xtb: 6.6.1 (8d0f1dd)
N            2.19966657226468        2.92394081141399        1.12969883824540
C            1.98825874860016        1.85238545811036        0.76689090969791
C            1.77368453611032        0.52944185333838        0.33093397875700
C            2.92106331631123       -0.26972786891707        0.40776733868558
N            3.17691372658131       -1.45028243543539       -0.08843740559938
C            2.25816503556803       -2.25586895154175       -0.61714788410191
C            0.89247564410416       -2.22684450761556       -0.53718417878101
C           -0.00285363544011       -1.19120325711810       -0.12992839365831
C           -1.31064800815664       -1.58711902905545        0.09710037976721
C           -2.47992821075085       -0.82776594788242        0.32585033255659
N           -2.73522654501252        0.42796780597517       -0.00014219593504
C           -1.82447513040393        1.31268086162312       -0.39609225280849
C           -0.42502652974272        1.26175337746647       -0.27419000247330
C            0.43061241413538        0.19231820485514       -0.03468182710952
H            0.05902664357585        2.22445358701001       -0.39020657639684
N           -2.36146143861472        2.45145143564595       -0.88552793548364
H           -3.36087278814858        2.55183843500851       -0.86360381116095
H           -1.78608154745437        3.25178084159977       -1.07588586993686
N           -3.54525725336870       -1.48011312944146        0.83930611118772
H           -3.49136343909389       -2.44616680016206        1.10379096061875
H           -4.39976191807412       -0.96939818788854        0.97161874440417
H           -1.46688744390400       -2.65888308959642        0.14764482547785
H            0.39133893882802       -3.12389378062716       -0.88313292757011
H            2.70114049121399       -3.12398288029388       -1.09780810730744
H            3.78181063677513        0.19261039552330        0.88639771352491
