26
 energy: -48.758469626162 gnorm: 0.000863646618 xtb: 6.6.1 (8d0f1dd)
N           -3.03349241033164       -0.60048308344601        2.47319356231567
C           -2.30564244266856       -0.86198201906495        1.62703855102560
C           -1.36564972985584       -1.16457252289372        0.61301400047996
C           -1.12336289027393       -2.45775609507041        0.29057510377567
C           -0.14957462678618       -2.93802628509493       -0.63469825270626
C            1.00540519589516       -2.31732499459856       -0.96312987550005
C            1.47551264685918       -1.05784222679412       -0.45055558633366
C            2.87905751536701       -0.86829810843084       -0.54151047125086
N            4.00832193508914       -0.72684889234481       -0.67411629810438
C            0.72359293221281       -0.01251662639657        0.00628405476819
C            1.36574734736645        1.16421845142110        0.61299431721749
C            2.30669605719284        0.86079412603941        1.62606429690535
N            3.03286979262336        0.60214077822718        2.47412839762904
C            1.12348995460905        2.45749242005261        0.29080299491419
C            0.14962422883451        2.93790645225537       -0.63433414792768
C           -1.00542802312763        2.31728266456705       -0.96266800819053
C           -1.47554928360755        1.05778688784415       -0.45011784376706
C           -2.87911346022364        0.86837265083797       -0.54098512120946
N           -4.00833631485972        0.72663446103395       -0.67365967751761
C           -0.72361246794192        0.01231937594166        0.00644505563101
H           -1.71177783842645        2.84326150349728       -1.59204960790610
H            0.31701492838747        3.93438156691917       -1.01898861238512
H            1.73973772311165        3.20907108373332        0.76880221693765
H            1.71171537349990       -2.84323766859068       -1.59260912277627
H           -0.31696421960238       -3.93448940760690       -1.01937415296754
H           -1.73940394054365       -3.20943275483731        0.76868845654294
