21
 energy: -35.766814292911 gnorm: 0.000260012543 xtb: 6.6.1 (8d0f1dd)
N            4.80292356078517       -0.08615629004791        0.37242579147447
C            3.66047721895016       -0.04346124105663        0.26897259253121
C            2.25669935842168        0.00047824111592        0.14281273871979
C            1.64224760115066       -1.03727102258497       -0.63179695398023
C            0.33796375648325       -1.39699804143638       -0.62910353944264
C           -0.75042784231940       -0.73455195620310        0.05169525868608
N           -1.73413610406883       -1.40142848027821        0.52690061844094
C           -2.96307157787151       -0.99583656482891        0.85395287558517
C           -3.65235510199318        0.01334118182344        0.24287626080157
C           -3.07113912889848        1.02822424553684       -0.55990659911311
C           -1.76199301773992        1.39290686650630       -0.61756604983914
C           -0.66158814813149        0.74062420235440        0.03470637020815
N            0.33997991245214        1.40618414536184        0.48568917262304
C            1.57413645416182        1.01842056333118        0.77525432717865
H            2.10368560941482        1.68079854908683        1.45013999061632
H           -1.48842497332720        2.25595346366698       -1.21042369151854
H           -3.76957912748264        1.65022638108581       -1.10575139308810
H           -4.72456332172019        0.04890422820940        0.37314104309578
H           -3.46926260498846       -1.66215426784858        1.54178371336979
H            0.03874120386222       -2.25831504865079       -1.21195927802679
H            2.32838061565932       -1.65489758704359       -1.19859618122181
