28
 energy: -50.644454740208 gnorm: 0.000511632005 xtb: 6.6.1 (8d0f1dd)
N            5.37976188583231        0.51368802943996        0.44296550089952
C            4.23212060418011        0.50006734913536        0.35937241633022
C            2.83031587810890        0.46397880728880        0.24849836541612
C            2.13879133291603        1.51904518691409        0.84597382054700
C            0.80745358795160        1.84123390583910        0.77077153969653
C           -0.26101474913122        1.14494237797757        0.17246391646905
N           -1.29505963233170        1.89320122062263       -0.15506873353901
C           -2.54329518703965        1.57953032479482       -0.43165475565549
N           -3.26583542235322        0.57853541887534        0.07060698732298
C           -2.73107295780300       -0.58109964861884        0.41017551903366
N           -3.58666607165391       -1.43832963206268        1.00464972332934
H           -4.54827889573637       -1.15820369779596        1.08491405386640
H           -3.33098532378936       -2.40062968514749        1.14607166855058
C           -1.41013644890060       -1.05042456442363        0.12356240217996
C           -1.27297591089554       -2.44594079406782        0.17184028784786
N           -1.21628259063081       -3.59683232071412        0.20994228386668
C           -0.22840103061786       -0.29005718987667       -0.08482876814355
C            0.91675523207343       -0.97809536567744       -0.48816784547131
C            2.26887383577934       -0.64481698144682       -0.44333125306069
N            3.13508407958849       -1.49877296294573       -1.04510483359509
H            4.12527163093005       -1.38422565589801       -0.90801808246778
H            2.80069362019594       -2.37387594036539       -1.40810335036628
H            0.72706769371717       -1.97490820062674       -0.87387294070274
N           -3.22180398475335        2.46000158855806       -1.19525680879796
H           -2.77958565388259        3.32687132586747       -1.44251267693810
H           -4.21946261518190        2.36673369340806       -1.25930235635321
H            0.51725631743199        2.80366490420659        1.17155574487317
H            2.76807129739316        2.22875182933824        1.37151068266181
