21
 energy: -40.571245294452 gnorm: 0.000777314700 xtb: 6.6.1 (8d0f1dd)
N           -4.83543520386832       -0.52332255035462       -0.13383447819240
C           -3.68963066058588       -0.49532355558556       -0.10188474806957
C           -2.27224874806271       -0.46633440479323       -0.06996794978222
C           -1.71015073384884        0.73716728203769        0.35986234287209
C           -0.37932542986185        1.13601420106983        0.30529044293815
C           -0.07148705734525        2.48343007672881        0.60456398694311
N            0.18667851638270        3.56845608989998        0.86917988052082
C            0.68086347580193        0.31658865839876       -0.13559470781341
N            1.71081063272758        0.75837067532520       -0.79849216825476
C            2.94242562626048        0.35302424454159       -0.93172547429626
N            3.63828981485401       -0.36256152316950       -0.06533922236252
C            2.98421962219514       -1.09576298282613        0.82194145283890
N            1.76673768886353       -1.54586725708128        0.72164888232578
C            0.70350052367063       -1.15257491129919        0.07114046670094
C           -0.31690204470669       -2.01193861971204       -0.34678236696991
C           -1.64252320752703       -1.66360348496204       -0.45815701285255
H           -2.31833687357362       -2.44622015867793       -0.78254691472930
H           -0.04525725123421       -3.04637781361648       -0.50461922378233
H            3.55829865760590       -1.47272767251125        1.66062565752368
H            3.48031491221112        0.75629290485706       -1.78137617484548
H           -2.41391534425778        1.49875808453030        0.67812313488735
