23
 energy: -39.215134466366 gnorm: 0.000865965348 xtb: 6.6.1 (8d0f1dd)
N           -0.89086237802680       -3.59835080903557       -0.25489281453422
C           -0.36452574378615       -2.57871304016644       -0.20143651826267
C            0.30399585070693       -1.33878526425122       -0.15958623171030
C            1.64295756068562       -1.33344992303057       -0.62533428515280
C            2.59416844910871       -0.37579296423942       -0.45450565795575
C            2.38454615612264        0.85806324358265        0.24919978612836
N            1.26382316497411        1.51961064436201        0.32491622483884
C            0.02979596307326        1.12460050879292        0.01918745172075
C           -0.85732771766214        2.02571465757476       -0.56168724940836
C           -2.24060956840632        1.91338251918597       -0.72006067963858
C           -3.11432256107272        1.09150112957385       -0.03952200096976
C           -2.69113864508018        0.17844903734762        0.94231654426125
N           -1.54305613701416       -0.40572227371202        0.99204554796430
C           -0.43297948424215       -0.23683177016106        0.28776703484521
H           -3.38911417185208       -0.12351785284574        1.71657844495098
H           -4.17606916412637        1.23874211279959       -0.16973050092406
H           -2.69073829391471        2.65574223136133       -1.36869096631048
H           -0.38651820310134        2.89816160876758       -0.99600413545658
N            3.46301698477680        1.45041711375314        0.80336558532199
H            3.33644069191182        2.30565631568157        1.31507949993240
H            4.36820629784033        1.01976928709830        0.76377699771134
H            3.60538193904698       -0.58675661971503       -0.77269530964635
H            1.95921210323556       -2.26044923062418       -1.09016755440568
