32
 energy: -53.488046941094 gnorm: 0.000955091491 xtb: 6.6.1 (8d0f1dd)
N           -3.52342157691047       -2.86077223832032       -1.45990219365810
C           -2.90344576010448       -2.02328485793692       -0.96935467605163
C           -2.16956243513461       -1.00123151037842       -0.34767642708694
C           -2.85622228804952        0.13117946329272        0.05688874896499
N           -4.18197102844857        0.25909380652476       -0.25488789905199
H           -4.73708164195163        0.92420987062280        0.25428911720592
H           -4.65957066488908       -0.54210893210702       -0.63478923966850
C           -2.29616355863299        1.17288841165717        0.86245726134428
C           -0.99537935659180        1.55190958368031        0.92621436093292
N           -0.56214109530276        2.45422309465748        1.85337659081368
H            0.32074604816158        2.90775502628282        1.69476943879077
H           -1.23393662700708        2.92915897812061        2.43186487965425
C            0.06186181127972        1.01679681900710        0.04556085680798
C            0.82145095366294        1.84537319793827       -0.71309057872888
N            0.55072682560235        3.22073023811967       -0.74088778364532
H           -0.42518742682573        3.45719693224649       -0.62919440622066
H            0.96523649498084        3.69554735904273       -1.52961979600422
C            1.95654140461384        1.42859505136987       -1.50218724485174
C            2.77630444976073        0.39178020722062       -1.25692848547069
C            2.69407791509380       -0.55116010195011       -0.17193540628162
C            3.89533445542725       -1.19297845822304        0.17934389043422
N            4.86594280360912       -1.73057419893544        0.48425313916287
C            1.55129427910909       -0.92126507108359        0.49630767481102
N            1.59627713674414       -1.76985943009133        1.55218105797071
H            0.74159181158513       -2.16618336833530        1.90222221239193
H            2.47189032492626       -2.19339403799057        1.81386516483001
C            0.21712889203535       -0.43582292466496        0.11670944423289
C           -0.79408788738566       -1.30838623637646       -0.06115695943317
H           -0.56298199910584       -2.36813513165172       -0.05447537091620
H            3.64582841935994        0.27185579127157       -1.89160396534666
H            2.21173156333433        2.08506109187523       -2.32529795559984
H           -3.00639100164902        1.71972964301384        1.47308258696749
