26
 energy: -52.767806996583 gnorm: 0.000970536996 xtb: 6.6.1 (8d0f1dd)
N           -0.00656027501072       -4.19648959753213       -1.23119959115921
C           -0.23752557462128       -3.14134263686094       -0.84805043221862
C           -0.51400630946827       -1.83077653696771       -0.39489324357093
C           -1.79783077431117       -1.35289824551447       -0.52797735301458
C           -2.36015730408540       -0.16541818122455       -0.03555960329761
C           -3.77294092744752       -0.10879523840344       -0.08010703403572
N           -4.91860479202115       -0.04401529502186       -0.10276234588023
C           -1.71477713261821        0.98176764601483        0.47109862123971
C           -0.30291779315450        1.22552632615672        0.35607071385132
C            0.09445003162947        2.57017443496265        0.55926737555307
N            0.37021161615885        3.65598012309529        0.80742855576884
C            0.69928436654340        0.30794460961992        0.11034364163229
C            0.57494283844680       -1.14502856916864        0.23310993701314
N            1.46254864322290       -1.80336003898420        0.90306338090865
C            2.70507511814713       -1.56008509902253        1.23162867746876
N            3.57086809238363       -0.88791161275635        0.51738611938478
C            3.19549216809355        0.04697766684661       -0.34384798217934
C            1.97403195256892        0.70451610377347       -0.43582985086778
C            1.92337993002866        1.81077989650883       -1.31721419200546
N            1.88507301262745        2.67406497643512       -2.07083683582618
H            4.00198958663419        0.42583067990888       -0.96274024011645
H            3.08061347206538       -2.09083621804485        2.09809066008711
N           -2.46734341358853        1.96860947600526        0.98163323862994
H           -3.47224655562157        1.88904111220240        0.98044033952518
H           -2.04622008758829        2.84429690388866        1.24956963668961
H           -2.50551508661402       -2.03380664131768       -0.98861696187945
