24
 energy: -43.736749291094 gnorm: 0.000369608785 xtb: 6.6.1 (8d0f1dd)
N            5.11280896218063        0.31558370595307        0.43878895758003
C            3.96988572773009        0.31885641992394        0.33193430691515
C            2.56635249288807        0.32735136050509        0.19809007940610
C            1.85606410545266        1.37469104619422        0.79754445533057
N            0.64154724213990        1.74113444397202        0.50816900774814
C           -0.32451890564243        1.14812421948034       -0.13859837467157
N           -1.15686729487784        1.87424847342725       -0.85749372130618
C           -2.44640858192191        1.77781503063427       -0.97943985973863
C           -3.31213055072795        0.99586906355481       -0.21961110704987
C           -2.96167891244289       -0.19868083824971        0.41508319717378
N           -3.92940107240529       -0.88523854389230        1.06273372868534
H           -3.75548573729540       -1.81583850859391        1.39914541656872
H           -4.87107452486384       -0.53588999897157        1.08606871520994
C           -1.70367438617296       -0.85496157429186        0.28680126563565
C           -0.50246593063944       -0.31103596393882       -0.07820180766139
C            0.62706060205330       -1.11034994385747       -0.47551183154141
C            0.29777077602948       -2.37042216225923       -1.02093926191303
N            0.00846186811431       -3.39957017171438       -1.44053383339416
C            1.96654661068003       -0.77703437570074       -0.43587585921250
H            2.65019150332724       -1.51730706125793       -0.83763286614488
H           -1.71153844197166       -1.91580636164876        0.51057725158800
H           -4.36079689283433        1.25930966758015       -0.22595145965277
H           -2.87681255891682        2.45878592267059       -1.70607131639008
H            2.36941743451506        2.01299787068149        1.50863097883599
