27
 energy: -46.904886129556 gnorm: 0.000824692714 xtb: 6.6.1 (8d0f1dd)
N            1.61748545563248        3.68054255159319        1.24823140512120
C            1.66025314489604        2.59086749865941        0.88361829281118
C            1.74064702144538        1.24797020482578        0.46115219101860
C            3.02869602862210        0.72105518839514        0.43140982807957
C            3.46825373331708       -0.50055609235087       -0.02816137009019
C            2.68764660809397       -1.61364689711186       -0.37798178103295
C            1.30530251692535       -1.74364704502089       -0.19116673734634
C            0.33705511291256       -0.80431992679887        0.12936208644228
N           -0.81186566021978       -1.31401393370021        0.58338226158505
C           -2.05259227242775       -0.97286062813811        0.46715478598851
C           -2.56028884726898        0.02661085734997       -0.45259117279597
C           -3.90222909908226       -0.07146849226143       -0.83725708317036
N           -5.00534565807940       -0.20240404493478       -1.14147623037200
C           -1.81647717481661        1.14577393926113       -0.77953974854581
C           -0.51157200344523        1.45935975038745       -0.40645898732498
C            0.50968673678385        0.63829811650353        0.06742553112539
H           -0.22306952622560        2.48779301059244       -0.58714779375451
H           -2.34390401802111        1.91446751495952       -1.33297569757969
N           -2.95010891906963       -1.62241893794822        1.23543790079923
H           -3.93526445885684       -1.47497981036529        1.10099849548515
H           -2.62928977234799       -2.33749155386871        1.86439857457468
H            0.91624526334473       -2.75154578598339       -0.28015073789039
N            3.34613343985538       -2.70348353839393       -0.84691398745333
H            2.85158338390163       -3.56016501595275       -1.01880045987680
H            4.34930437356269       -2.71236835821378       -0.88629063356459
H            4.53995587424316       -0.63500569046636       -0.09735665493452
H            3.80361304292509        1.41182727308376        0.74573918150238
