25
 energy: -48.256586234227 gnorm: 0.000829260690 xtb: 6.6.1 (8d0f1dd)
N            1.89291799604979        2.80352906703558       -1.66530429304114
C            1.90964300594460        1.80280744486025       -1.10501198693124
C            1.95012864923134        0.53683457951611       -0.47264557424488
C            3.20399409647754       -0.09401042521951       -0.46202136561475
C            3.58921493245359       -1.21373417152094        0.25061623356002
C            2.70936899248512       -1.98813740983533        1.01377625857011
N            1.43541328357926       -2.11022507957972        0.79915192294848
C            0.59693996440934       -1.44057055353167        0.05571990192392
N           -0.34510795148320       -2.06610580368359       -0.61160225229190
C           -1.57015983756532       -1.71084728738668       -0.85169259185842
C           -2.29874971498434       -0.70110357919525       -0.21048173959378
C           -3.70313898752142       -0.76183994579432       -0.31108382549414
N           -4.84938043108601       -0.79927060736847       -0.37655403760017
C           -1.74485363880676        0.43751223810164        0.43786750053042
N           -2.59580821493036        1.28932976206090        1.03639047140530
H           -2.26643065923373        2.17666721340212        1.38210504817499
H           -3.58774194014386        1.11631249885574        1.00051165618597
C           -0.37310973072946        0.82054599764464        0.36066218558676
C           -0.07937078911425        2.13378166430506        0.79135796194781
N            0.11669331559285        3.18726388704212        1.20446078367978
C            0.71682345876858        0.02401947799742       -0.01446676727984
H           -2.09813288046856       -2.34405377711753       -1.55636845547296
H            3.09836009964364       -2.60669075996520        1.81444588596054
H            4.64312002266804       -1.44347264637874        0.30254098763764
H            3.98925854086544        0.45533960425642       -0.96814082258896
