21
 energy: -39.005807622872 gnorm: 0.000405657934 xtb: 6.6.1 (8d0f1dd)
N            3.26756289266394        1.37573160625564        1.14957172587860
C            2.36350793629895        0.74494164466305        0.36614817629638
N            1.12072075536422        1.18365538523103        0.46200404994803
C            0.03232155977190        0.57623777493311        0.06951255460035
N           -1.04416477785800        1.19941163093928       -0.33757049306401
C           -2.27537475131091        0.69830008996022       -0.29513717236299
N           -2.77563366565180       -0.14897436376257        0.61168546558588
C           -2.01212853309174       -1.00613377127941        1.25429152736360
N           -0.84392082174002       -1.48859248708938        0.91915091440874
C            0.00943602945395       -0.92251278259720        0.08638972382509
N            0.82113276090451       -1.56665917860501       -0.69454407179568
C            1.99445045710935       -1.15345374611614       -1.15166565331972
C            2.81588122675167       -0.20706843427176       -0.58686228327579
H            3.86014272171649       -0.18397759079696       -0.86552447808962
H            2.36876866394899       -1.74979725836160       -1.97633832925304
H           -2.47673781077389       -1.48229002382829        2.11226476390815
N           -3.16564689130654        1.23498152839294       -1.15166688644013
H           -2.88755342511986        2.02636962025759       -1.70430093760022
H           -4.13976178425773        1.03894406123718       -1.00427325936716
H            4.25053166405636        1.24421438152833        0.99636699236278
H            2.95567189737037        2.15302134281019        1.70516410089099
