30
 energy: -54.871669045115 gnorm: 0.000689833984 xtb: 6.6.1 (8d0f1dd)
N            1.34856049330600        3.08328954466477       -2.07109251590832
C            1.51932162063645        2.17576957760590       -1.38726213083655
C            1.76970188400152        0.99449741609276       -0.65571886344225
C            3.11138399988755        0.65755779630243       -0.50199076923854
C            3.66770313573737       -0.40027100024629        0.18200666254965
C            3.01670890779848       -1.55670375294568        0.63946048452825
C            1.69149458396748       -1.91475951563102        0.35789984628292
C            0.63306779400723       -1.15784294273424       -0.11930455740753
N           -0.40168965706722       -1.84309552339882       -0.60565600133586
C           -1.67460135479759       -1.59387499722837       -0.65757659259315
N           -2.41098564339797       -2.37641817016798       -1.47420523292060
H           -3.41495651771841       -2.34799777642049       -1.43572723791864
H           -1.95187429904307       -3.12172752955697       -1.96725028012617
C           -2.37556797016002       -0.62762981274005        0.14632076979417
C           -3.73305662261616       -0.86794898393986        0.38710848015881
N           -4.84742944733199       -1.09097250374655        0.57888325561011
C           -1.81029794305885        0.57288790635987        0.58626154511362
N           -2.58257893320295        1.40870740452681        1.31483913687058
H           -3.55266710978193        1.18405930744846        1.46121109090697
H           -2.26038815364321        2.33901763812284        1.52414104899076
C           -0.49204479179441        1.02986522098474        0.24580578024852
C           -0.27335103333412        2.39732151134404        0.52112266596163
N           -0.15555417982374        3.49392348032419        0.84793560536694
C            0.62467723787365        0.29618057334956       -0.16748920671585
H            1.43673829195745       -2.95327578460544        0.53301759669700
N            3.76781000346005       -2.46365675691905        1.31576382039146
H            4.75667906096286       -2.32369868735215        1.41917206614279
H            3.38532816600088       -3.36176089120581        1.55126525046656
H            4.73868861816640       -0.36944101171396        0.33524124909418
H            3.80758009270701        1.38062360382485       -0.91068716763197
