26
 energy: -47.980093776842 gnorm: 0.000681022314 xtb: 6.6.1 (8d0f1dd)
N           -5.74196057073124       -0.40126953546291        0.24519138337014
C           -4.59783272122496       -0.40178020087027        0.15679789270519
C           -3.18942540297192       -0.41406598178723        0.03954624984249
C           -2.62785370736430       -1.58154360912351       -0.54216967336734
C           -1.32387499336606       -1.95704227628685       -0.60391388243309
C           -0.14558460651543       -1.26609773775241       -0.18028632185585
C           -0.09166700843214        0.17880564302959       -0.08599894525540
N            0.98824114345746        0.83447707365115       -0.48277570457513
C            2.26236629173970        0.62130412427485       -0.43484008884050
C            2.87549410794980       -0.42275393565839        0.37017658750051
C            4.21175327801481       -0.24500161816205        0.75832831136588
N            5.30625449339567       -0.06144366478390        1.05973435087682
C            2.24467167798127       -1.63346662903985        0.56571645867308
C            0.96636236283936       -2.02896114878033        0.15759670938360
H            0.78721407082239       -3.09615848794108        0.20636590072243
H            2.84844676431737       -2.40798848983929        1.02467006135528
N            3.06389467556694        1.41866548210018       -1.15573683880402
H            2.65472700470671        2.18419052333572       -1.66364727597371
H            4.06045099154614        1.39114611119093       -1.01951526865650
C           -1.15300999464845        0.99460512927661        0.36752660926458
C           -0.76480558777498        2.30935577513195        0.71965868651920
N           -0.45568167663811        3.37242251451525        1.02073052359647
C           -2.51446262199407        0.70530338445548        0.48778432565078
H           -3.12164850512917        1.49838259920669        0.91040395125920
H           -1.13239889986338       -2.94884932706228       -0.99668901953114
H           -3.35536940808412       -2.29193130971736       -0.91693297979249
