26
 energy: -42.375867315810 gnorm: 0.000591418790 xtb: 6.6.1 (8d0f1dd)
N            1.03723532624526        3.38855924071863        0.84870466354835
C            0.37415519095512        2.47501266568462        0.62864218664878
C           -0.45876115011310        1.36353347643538        0.39038489958240
C           -1.84288356643267        1.59901633055201        0.51508475848828
C           -2.88333200755912        0.80068312848277        0.15521057404854
C           -2.82730914782808       -0.54071662661968       -0.32154696494656
C           -1.73201659634099       -1.37855033282877       -0.30940049015236
C           -0.38153202016014       -1.13604333510946        0.03598088171666
C            0.39114103875261       -2.22346278650741        0.44163976199539
C            1.75030006445614       -2.30405417067289        0.76856723658452
C            2.76657602589564       -1.44450765362938        0.44740786648044
C            2.55295885288549       -0.30383363391787       -0.38046231676193
N            1.44564803077935        0.37305833173652       -0.45149974845638
C            0.21450939463162        0.18990457081210        0.00500439567597
N            3.57567171967353        0.13652969310401       -1.15558991557018
H            4.50993565475723       -0.17834962254594       -0.96446631495480
H            3.45701458402707        1.02124895198451       -1.61907583577355
H            3.78488959468070       -1.71175184496231        0.68938022306555
H            2.04154520984115       -3.21558661603516        1.27836636645809
H           -0.16998458267765       -3.13416788549709        0.61581396454140
H           -1.94467226420647       -2.41195669191237       -0.56528337316745
N           -4.01027495974051       -1.04940967155521       -0.77919959070156
H           -4.08358601608085       -2.03305062430442       -0.96920044153559
H           -4.86192418992388       -0.54565990928352       -0.60868533155611
H           -3.87821753657061        1.22000228842940        0.23635650426097
H           -2.09491907084721        2.59143522094209        0.87185884778182
