33
 energy: -63.622371544422 gnorm: 0.000970022249 xtb: 6.6.1 (8d0f1dd)
N           -0.42283194419955       -4.06255902830927        1.36574579861606
C            0.15697966991512       -3.14813361718521        0.98517256942871
C            0.90410137003044       -1.99833581762184        0.62984017008796
C            2.26042846086656       -2.05123140426998        1.03612245542225
C            3.28802868956019       -1.25531735946151        0.64384008985864
C            3.21976251506393       -0.13342752343483       -0.23129087363581
N            4.38234373716350        0.27169438118645       -0.78491076245227
H            4.41173975124417        1.09709431184152       -1.36011987257110
H            5.24240197891352       -0.19219505114916       -0.55398716735865
C            2.06197761584768        0.60470305630808       -0.48834452431618
C            2.20246911630549        1.70405436879469       -1.36122441435647
N            2.34382411996141        2.53726869867827       -2.14077861556312
C            0.72186450659182        0.40122722741618       -0.00252697431430
C            0.19329377485648       -0.94549295228900        0.05741404257280
C           -1.07207006329481       -1.23394452707633       -0.54948062193843
C           -1.13266630459925       -2.47478085564922       -1.21783536110106
N           -1.19606242956839       -3.43683050639541       -1.84424870190604
C           -2.22953366791010       -0.45168778535260       -0.59838326842816
C           -2.41220700522752        0.78422615803146        0.10022396379186
C           -3.74820685464219        1.18814738321103        0.28483272546367
N           -4.83831064997443        1.52298547108759        0.43792132559779
C           -1.42972912978684        1.66023118414781        0.56634609530476
C           -0.02124628040173        1.53198046786345        0.30317729876152
C            0.71934456702734        2.71676748162693        0.52548673500024
N            1.27855126859533        3.68102184036462        0.80557400707752
N           -1.81941105552659        2.76164857664997        1.23896730150605
H           -2.79979906584431        2.95598894565547        1.35990942643058
H           -1.14765427923233        3.46839695332245        1.48883636852762
N           -3.29648417791568       -0.92661272854415       -1.27401741560437
H           -3.25950188393606       -1.84589987602436       -1.68330390660884
H           -4.18253611832763       -0.45284776581024       -1.21943920021380
H            4.28362634417781       -1.53042439959940        0.96531436032937
H            2.50693043926672       -2.89691145101364        1.66638125459066
