23
 energy: -42.459760501808 gnorm: 0.000427992425 xtb: 6.6.1 (8d0f1dd)
N           -3.46095789567955       -0.61497956943174       -1.53863782485622
C           -2.59931134176687       -0.31719710978582       -0.53010907475730
N           -1.43175085290450       -0.93146088274676       -0.57760953235664
C           -0.31943448922809       -0.62401839850074        0.03532931780337
N            0.57497052838145       -1.51763768712103        0.37742435132378
C            1.86870659772806       -1.24564695552283        0.54946325916943
N            2.59998894865003       -0.32161610412454       -0.06036602302479
C            2.07473378843184        0.78821110691184       -0.57926103081359
N            0.96475927416332        1.41703759762476       -0.21699938168553
C           -0.07085233062695        0.82333931920297        0.33732744845646
N           -0.89418061982403        1.42264245422325        1.14639838421487
C           -2.16488383780033        1.14978662838678        1.38094727390038
C           -3.03975278884956        0.49579812612708        0.54218838770878
H           -4.10400898088178        0.61036923857150        0.69347987991240
H           -2.55014525525508        1.62618636920586        2.27615958796423
N            2.84913844079595        1.43179771855409       -1.48225944420368
H            2.61241670299543        2.38301367998261       -1.70353599262071
H            3.80047605425888        1.12433729328601       -1.58111617173566
N            2.54876156266515       -2.12141508162222        1.32114977145884
H            2.07852195330097       -2.96230468033512        1.60520577289949
H            3.55217411521736       -2.09777920577843        1.28589166739358
H           -4.43823000866068       -0.41476296279420       -1.42154446541953
H           -3.19922778511152       -1.35439328701307       -2.16794574273257
