32
 energy: -52.685662304288 gnorm: 0.000843538225 xtb: 6.6.1 (8d0f1dd)
N           -4.27857795056492       -0.65994142680210       -1.14089341309098
C           -3.25936494001293       -0.38351533225607       -0.67877899003317
C           -2.01772865576977       -0.06336938117106       -0.11045285003026
C           -2.01205207717343        1.05253461701100        0.83001301386565
N           -3.19506271385897        1.23392087668431        1.52552263832741
H           -3.33508491334231        2.14420176869399        1.93433597314628
H           -4.02220046579226        0.82877957064002        1.11489807576127
C           -0.96973577885699        1.89419062295432        1.02924487681985
C            0.32244849916052        1.83281972377678        0.39845980370662
N            0.94759939074373        3.06902063851460        0.17151981579261
H            1.95686469054511        3.02007805697515        0.14855671937968
H            0.62153021708505        3.80107203859951        0.78581905336611
C            0.92785276998261        0.68673705313743        0.01525436425186
C            2.21371914261273        0.66905937632025       -0.73239989738763
N            3.29728229407524        0.12818901779295       -0.31198493302241
C            3.37385322700437       -0.71116361938391        0.74549332541110
C            2.44015037596469       -1.60237376769412        1.15419470386620
C            1.09350324927650       -1.70808509634452        0.66476796881325
N            0.50531923985085       -2.97946740355297        0.75791779629479
H            0.98213138525383       -3.58838698908806        1.40758997858468
H           -0.49290316862682       -2.97047154203383        0.91693746219693
C            0.38756388203322       -0.66108237675061        0.14610287477754
C           -0.93920605880009       -0.84269618274158       -0.45301675250681
N           -1.03881777093509       -1.80520311433792       -1.40317668802254
H           -0.28958444278551       -2.46772022591342       -1.49777135447822
H           -1.92993784990994       -2.00852895823445       -1.82515707488226
H            2.74428081731105       -2.35512220634559        1.87124282077745
H            4.36143874569045       -0.73820981396828        1.19097720572951
N            2.18295137891798        1.23877533418399       -1.96182902790366
H            1.46110564242263        1.90715455758973       -2.16601458535814
H            3.03414604446273        1.26229112561113       -2.49755282206795
H           -1.14180196856272        2.74890550163396        1.67354531851528
