27
 energy: -46.111723154452 gnorm: 0.000366838509 xtb: 6.6.1 (8d0f1dd)
N            5.20137156455618        0.07688414822286       -0.82166984468032
C            4.07397443532150        0.18039401498707       -0.60326387809607
C            2.70543606214374        0.25429797645127       -0.32948349496266
C            1.99212716397034        1.39673180003398       -0.69094676658433
C            0.67620140941235        1.71374552951633       -0.43401503395715
C           -0.40204299397289        0.90785749383364       -0.01059217218982
C           -1.60700718924945        1.54494891943850        0.27688790957339
C           -2.89981474061062        1.01411312150084        0.38967509288820
N           -3.37286946725502       -0.15235055556524       -0.03458303757324
C           -2.64548407635669       -1.19107433774584       -0.42263801059611
C           -1.27369782970619       -1.42888423905900       -0.24996877813210
C           -0.25211347066369       -0.54403583706770        0.07121069251421
N            0.86780157284807       -1.12082495497968        0.49946626810667
C            2.12516404345024       -0.79034279152724        0.46492916265701
N            2.96007582562627       -1.54150610257271        1.22369365689207
H            2.58276240625746       -2.34662872197347        1.69146906905387
H            3.95397170920327       -1.46771821850172        1.09067354433480
H           -0.95687247407522       -2.45959989135888       -0.35087796235446
N           -3.38716335203038       -2.18535855595328       -0.97445294257385
H           -2.98213594267375       -3.08671899397519       -1.14801002944556
H           -4.38696628565339       -2.09133365093523       -0.95027892175584
N           -3.86436492622123        1.81795230165270        0.91196839570631
H           -3.68037592242225        2.78987427183481        1.08177747637173
H           -4.81708327938791        1.51021857711834        0.82823494290955
H           -1.54641915151171        2.61965499921823        0.41079930326082
H            0.39584676750980        2.73308081298292       -0.67348221731837
H            2.58041366128652        2.17077321611196       -1.17184347574969
