28
 energy: -45.822865692481 gnorm: 0.000364955999 xtb: 6.6.1 (8d0f1dd)
N           -4.81707167431135       -0.06058794842631       -0.52115832893344
C           -3.67544892987766       -0.07215660122324       -0.34588657000391
C           -2.29665926059816       -0.06535824215647       -0.14272353718585
C           -1.71098595644467        1.10870420104712        0.43687965613796
N           -0.47390976590148        1.48636611580795        0.34499868034580
C            0.64541100214549        0.88530249412350       -0.07128951450473
C            1.58787318809125        1.75055674636184       -0.61758271706666
C            2.94933013053810        1.57526115267832       -0.84979761885473
C            3.77200388727403        0.56492160708492       -0.43084859014320
C            3.39321933531779       -0.61613478442168        0.25119684581697
C            2.10927020866935       -1.09362521247354        0.42851570064139
C            0.84749447597415       -0.54518345771280        0.10127319543019
C           -0.20520435284937       -1.44612434428455       -0.03908897501875
C           -1.56623076182382       -1.25513044830536       -0.32260853738135
N           -2.26095965610963       -2.34759874710736       -0.74002156630984
H           -1.82203439577962       -3.24994315404588       -0.75383661852040
H           -3.25968011682364       -2.29219280419590       -0.84030882569012
H            0.09123240164030       -2.49021767662884       -0.03006913376486
H            2.06075476341343       -2.09886983883899        0.83738618854530
N            4.42595869950254       -1.43395037876901        0.64282780598557
H            4.22258340374101       -2.18508252309891        1.27971572250802
H            5.34654430716474       -1.03544767263009        0.70594420460386
H            4.83190109045050        0.67156126333940       -0.62395259324693
H            3.43695912260274        2.39892455623031       -1.35821862600305
H            1.18719314968695        2.72712156113089       -0.85915002902614
N           -2.53963417608034        1.94255868681559        1.11767854554718
H           -3.53471769740288        1.83247621926459        1.02119543641048
H           -2.17560158820934        2.83832495723326        1.39169030268137
