27
 energy: -46.895820504623 gnorm: 0.000561522606 xtb: 6.6.1 (8d0f1dd)
N           -0.73159663113276       -2.94464527186786        1.95966592488763
C           -0.14428709034221       -2.22247290878128        1.28604466823190
C            0.63784612166146       -1.31645881105335        0.53935264798721
C           -0.01603312752657       -0.06527834858901        0.19602088605000
C            0.75499210686571        1.15459427633911        0.34922138189861
C            0.11666017933065        2.25986382437979        1.03262996115273
C           -1.18852498283753        2.61514283364053        1.00299999288332
N           -2.17633392996797        2.18643707281619        0.19650560487420
C           -2.21754265070017        1.04247718077914       -0.41092125440257
C           -1.34127159345603       -0.10558152945585       -0.17422491953884
C           -1.92164259206229       -1.34825886644769       -0.49662685513726
N           -2.45519131411134       -2.29854552241206       -0.86504302188414
N           -3.21585699839383        0.86856282259622       -1.30386093510010
H           -3.90460008477246        1.59838111456416       -1.37214650410064
H           -3.43933117736263       -0.05150809203375       -1.64441870626131
H           -1.50249245565772        3.45388256111874        1.61575826012408
H            0.78254148548395        2.86673494398365        1.63274885207093
C            2.06469233236612        1.29947153026404       -0.01251457269682
C            2.98196692826501        0.36855891784217       -0.57814010742948
N            4.06579419273664        0.90246580260170       -1.19863229869590
H            4.19653281588060        1.89649845105750       -1.23607241673563
H            4.79878171454552        0.30676311633299       -1.53725027307861
C            2.91399907253629       -1.00792680348150       -0.43693727744785
C            1.91482042110909       -1.71806306097897        0.22536741904279
H            2.15474458872151       -2.74232567048002        0.48669033603162
H            3.76590781162736       -1.57687636885013       -0.78505708923646
H            2.46172506409373        2.30309173971491        0.09572327371075
