26
 energy: -50.438955121376 gnorm: 0.000465969656 xtb: 6.6.1 (8d0f1dd)
N           -1.10817779991499       -3.45847305966861        1.02102388876152
C           -1.08119096432358       -2.35228174941103        0.70455850325336
C           -1.09896273486308       -0.99412735371923        0.35241875253963
C           -2.30960468318295       -0.26536782507066        0.58058216257015
N           -2.69650282184911        0.83894933776826       -0.02604212603334
C           -1.92801436249890        1.63696325004956       -0.76815627956795
N           -0.64063528039591        1.88938377916857       -0.62280620135029
C            0.23283626842858        1.05710929339704       -0.10297823962935
N            1.29699851537964        1.50444553383104        0.51102331434594
C            2.44200403850930        0.87157811046688        0.73861905822612
N            3.02801546883461       -0.04734701754206       -0.02118733386308
C            2.30462344257506       -0.81464866661851       -0.83513196600672
N            1.02918060249354       -1.14079211175429       -0.69835304741115
C            0.06389570956297       -0.42157625766090       -0.17679397219847
N            2.98295086999978       -1.45593675059022       -1.81345143500052
H            2.53144895571262       -2.23571964001385       -2.25930192284225
H            3.98651924945308       -1.43608749156060       -1.76510785935081
N            3.16167570948830        1.32159857839050        1.78977695443277
H            4.12283535710976        1.03673269288951        1.85264000095693
H            2.86484291275004        2.17065521463265        2.23720103963528
N           -2.58767339747926        2.39278893755995       -1.67220431704199
H           -3.59136860755566        2.40289534952838       -1.64049579743173
H           -2.09406852969760        3.15911392083167       -2.09436630374956
N           -3.22051833452253       -0.81003934977658        1.41573406597567
H           -3.08454878915610       -1.74291854867212        1.76611460232343
H           -4.13223011035867       -0.38942389845929        1.45746316245464
