28
 energy: -50.640593370450 gnorm: 0.000568360757 xtb: 6.6.1 (8d0f1dd)
N           -0.29075232170208       -3.28820530002387       -0.73466525084494
C            0.10686417322024       -2.24291447785054       -0.45990630088300
C            0.68847962944446       -0.98118440473431       -0.24118751940914
C            2.11845360176061       -0.94174875725586       -0.44638839851436
N            2.95931814564713       -0.04549159836057        0.01043571031505
C            2.55967692979997        1.09235881775028        0.60500076335181
N            1.50502490474053        1.81300702404756        0.33205234710879
C            0.33012657294456        1.46373566472109       -0.18526049868152
C           -0.38204603526062        2.45266397087085       -0.85589160455438
C           -1.72489929558937        2.47827727252396       -1.20860495892736
C           -2.75143422490767        1.67283395508633       -0.77650519009961
C           -2.67851557630460        0.55797477785912        0.08148038285404
N           -3.85019691889850        0.10020747843808        0.58944298367897
H           -3.87174603570878       -0.76117207216617        1.10894425431884
H           -4.71799596057228        0.49877356788204        0.27971909004734
C           -1.50699242113727       -0.15953046522577        0.39291482550833
C           -1.68110321432122       -1.29935240111741        1.20255654629377
N           -1.86857662016837       -2.15899535360468        1.94483701278376
C           -0.16786657878185        0.10349877496358       -0.01274578607945
H           -3.75326985037667        1.95500987340989       -1.07532003815842
H           -2.01992582835971        3.30923862791162       -1.83801558703767
H            0.21131330754064        3.31566837955989       -1.12685387478436
N            3.44260752309164        1.60994919963185        1.48449965332907
H            3.29206406395401        2.54054705432269        1.82990571729929
H            4.34927278683355        1.18522305030780        1.55629425569211
N            2.67792266439290       -1.97821949090587       -1.10034758455001
H            2.13210654168395       -2.79035934168153       -1.33375200018547
H            3.68135828783471       -2.02015661456029       -1.13876090587154
