29
 energy: -44.717922280461 gnorm: 0.000761468214 xtb: 6.6.1 (8d0f1dd)
N           -2.36910449914717       -0.64202714754229       -1.59699502070687
C           -1.47799789905116       -1.02140736578929       -0.61598057460356
C           -1.35584502074494       -2.31928308597661       -0.24850059429780
C           -0.45865716577150       -2.85316327485987        0.72648050553704
C            0.74025651727583       -2.35869887160096        1.09621145252715
C            1.37218617694819       -1.18072350624445        0.55376616225103
C            0.69709229165782       -0.11268913806525        0.07478198504375
C            1.38810556875650        1.02730213220465       -0.58921372288579
N            1.40977201606501        2.22928154726649       -0.14829157589453
C            0.60692013583422        2.69068836981851        0.84044251077479
C           -0.66206327275542        2.30470330431253        1.10687064957332
C           -1.36144556170154        1.19464782671464        0.51679971612573
C           -0.74535782367175        0.07066259604085        0.05167207768481
N           -2.75425762130752        1.32390839388191        0.44978255961842
H           -3.25127431526702        0.44558732213949        0.41047429317613
H           -3.13477846971905        1.95516331894991        1.13955940328144
H           -1.24451344383341        2.92807802095531        1.77433706277682
H            1.01603591459690        3.55804582220237        1.34520518943832
N            1.97585040209804        0.73433535656556       -1.78115318364279
H            2.48906026066729        1.47169256243659       -2.23581780173360
H            2.28164285256934       -0.21255051695090       -1.93009788832852
N            2.77710103228653       -1.21203165409780        0.48754629557994
H            3.20640169949100       -0.29744719379172        0.53952128578605
H            3.18989424224944       -1.85314291885289        1.15061660827779
H            1.34379199273220       -2.93988396103900        1.78351316356141
H           -0.75125603054319       -3.81016397970669        1.14294860140627
H           -2.01597061537680       -3.03625233897772       -0.72320396934656
H           -2.29743170955354        0.30668671873484       -1.92427300956322
H           -2.62279714948444       -1.32991109712862       -2.28772713951794
