27
 energy: -51.709969393831 gnorm: 0.000667281869 xtb: 6.6.1 (8d0f1dd)
N            3.27846408350986        0.19576516658898        2.05005001917387
C            2.49642323462058        0.61228945352366        1.32077646465620
C            1.50154510949245        1.17122999029968        0.48347004224652
C            0.60789201490394        0.22987903846277       -0.09529049799703
C           -0.75044998586844        0.72380249565452       -0.36817704375657
N           -0.88927947023412        1.79718808222590       -1.09750863376153
C           -0.22443308872370        2.89854542384001       -1.26038485770697
C            0.74486109976666        3.38948019759503       -0.38509584041843
C            1.47952794256766        2.57031804900937        0.45169346150416
H            2.22545519027962        3.04774591306489        1.07629874165555
H            0.98622248126225        4.44079765757166       -0.41945544524326
H           -0.53719840837117        3.49256215408192       -2.11132738898270
C           -1.88513213568926        0.05789597942615        0.12938706511410
C           -3.07108756675366        0.79853204081341        0.26858954060965
N           -4.05722047806194        1.36990111375877        0.42025687850857
C           -1.92144295866284       -1.31227526749013        0.50611448502422
N           -1.12528337695641       -2.27126251963003        0.05630908351865
C            0.07008690889094       -2.18631607302966       -0.48078192145781
C            0.98733438005104       -1.08600694105303       -0.33991400539072
C            2.34827638864186       -1.38917704975389       -0.53159244644921
N            3.42938181226048       -1.69621836952350       -0.77335977773786
N            0.50641686702388       -3.29287763496483       -1.10351908194961
H           -0.08031163780052       -4.10962533715322       -1.10115697476280
H            1.46317482835383       -3.36312545279917       -1.40817304149319
N           -2.93913176841817       -1.73913041876143        1.27363521025677
H           -3.04387070329428       -2.72643567734562        1.43041028479103
H           -3.67350431119067       -1.10616148091173        1.54229640904867
