28
 energy: -46.604912563531 gnorm: 0.000501401807 xtb: 6.6.1 (8d0f1dd)
N           -5.31100734691708       -0.34794363319543        1.32562422465185
C           -4.29846926949832       -0.19476003919469        0.80792422715185
C           -3.05322790011628        0.00461806839776        0.16574357869368
C           -1.99780466927361       -0.71718369784047        0.60299482106348
C           -0.64631391158147       -0.70689278187637        0.06175062166056
C            0.02128593036779       -1.87925050814431       -0.07923476222984
C            1.33969941281979       -2.09368962479485       -0.55701643756217
C            2.38843725355261       -1.22673685309429       -0.49451270214313
N            3.60546342442486       -1.56565362851551       -1.03743207450677
H            3.74708621737234       -2.53228055951296       -1.27906903060016
H            4.42057178448468       -1.07354111919118       -0.70859518136796
C            2.34232189756199        0.05288803097476        0.19641042270367
C            3.56262750052446        0.49634314783935        0.73861999514227
N            4.55825998195620        0.85268971457355        1.19321438521275
C            1.24796074378299        0.86199439677186        0.37171921221210
N            1.34706168886931        2.01249618725730        1.08529099353057
H            0.52309924869385        2.55721889665689        1.26644001778527
H            2.18518225233300        2.21131644020876        1.60597242469550
C           -0.07858079906824        0.61184193926864       -0.21942042816724
C           -0.69563394520202        1.62062708915030       -0.86707190967863
C           -2.03007847747660        1.63425986297291       -1.40873706787190
C           -3.07905587136586        0.93593532316300       -0.95200534019537
H           -4.05519459028252        1.09739777666976       -1.39042856527187
H           -2.19672625892914        2.34339325492835       -2.20941500771474
H           -0.12490637963987        2.52453426868709       -1.04506549523595
H            1.54261200771273       -3.07761841263904       -0.96004912454332
H           -0.54751069315606       -2.78092540850713        0.11539176018495
H           -2.16997163274915       -1.41157030781402        1.41961422630144
