33
 energy: -62.840257388807 gnorm: 0.000711623548 xtb: 6.6.1 (8d0f1dd)
N           -0.85944503699793       -3.58478295760117       -1.64881490386531
C           -1.08109071266041       -2.59592787702960       -1.10338697554487
C           -1.41066354733202       -1.34173416004027       -0.55246222213000
C           -2.79372650337344       -1.03384356274926       -0.50255705911397
N           -3.64465416977559       -1.93838072641790       -1.04532785819992
H           -3.28909497036890       -2.81134204192932       -1.39788409178070
H           -4.63401664915612       -1.84799479581462       -0.89987543133495
C           -3.36512455547827        0.06405069981108        0.14603231754306
C           -2.77405434249508        1.24097170881023        0.58492909917383
N           -3.54849422341108        2.11822789700123        1.27046824273453
H           -3.19742801365852        3.04013711572640        1.46918078832878
H           -4.53566648595965        1.95520009320076        1.35717989958053
C           -1.44575142794967        1.66230164282124        0.29018388901444
C           -1.17064560868283        3.03313447693378        0.46608296509735
N           -0.98255190619307        4.15581191696929        0.63054871895988
C           -0.36443632405216        0.90403759743597       -0.17498277762067
N            0.63372674078540        1.57504731317885       -0.71754535324151
C            1.91387925780776        1.35521743781269       -0.82553547971862
N            2.57410477997851        2.09580927699112       -1.74005900369917
H            2.06727427682909        2.82733195173842       -2.20806325994470
H            3.57929913988184        2.13038773615373       -1.72461844479183
C            2.66761043029236        0.47232176143942        0.01064408836815
C            4.03737391058403        0.73376493234904        0.14609374277707
N            5.16162156636839        0.96230395674990        0.24773524544768
C            2.13835543403451       -0.67660036711274        0.61815735792996
N            2.95819160605744       -1.40467313588655        1.40816606151398
H            3.92642354724027       -1.14319772082893        1.49105789003981
H            2.66518957883820       -2.30543296608129        1.74792975542212
C            0.82553430380481       -1.19276834891467        0.38470938580577
C            0.62605200078224       -2.50553836022037        0.86384208044768
N            0.50576237140810       -3.54230450894687        1.34756662234118
C           -0.32355557791116       -0.55276787725055       -0.11373698958523
H           -4.43667184262510        0.00084286850285        0.29641937063918
