24
 energy: -38.928725580235 gnorm: 0.000837435966 xtb: 6.6.1 (8d0f1dd)
N           -1.00163193457490       -3.35739230740778        1.33075811424161
C           -0.40707752273327       -2.47264991675960        0.90151099961177
C            0.33169325826970       -1.38125129630314        0.41002260965450
C           -0.45353312446986       -0.26728098865442       -0.10100431663078
N           -1.50389473663716       -0.53619626240164       -0.77766992886935
C           -2.54969721199445        0.20613809705870       -1.14294357146586
C           -3.05988304895371        1.25209951288041       -0.43307489722910
C           -2.35390954775947        1.93530042986881        0.59097488619107
C           -1.01917219197269        1.90745100949020        0.83668438593918
C            0.00031766514254        1.08957135125277        0.22132246962061
C            1.27188969190323        1.54314012515172        0.07413226703830
C            2.44598957559811        0.81217060737323       -0.28671263932582
C            2.62938426673476       -0.54599706750810       -0.11029361153605
C            1.69853405018923       -1.48162556397838        0.35525176258657
H            2.10977387303117       -2.43852149808654        0.65686873298446
H            3.63218040163386       -0.91836678143088       -0.27787679117428
N            3.51658196273587        1.56736488885117       -0.66433414380158
H            4.34329294182596        1.11129019413856       -1.00824816331626
H            3.38136597737915        2.53151856999146       -0.91102100924124
H            1.43033651356668        2.60430013792295        0.23251781961379
H           -0.64561453625703        2.55059267837339        1.62544505135194
H           -2.93734950989662        2.63361242027464        1.17888713231067
H           -4.05954952259297        1.59426017447237       -0.65881544805550
H           -3.08796008196711       -0.19802768876964       -1.99185404080015
