24
 energy: -42.164603494123 gnorm: 0.000749511183 xtb: 6.6.1 (8d0f1dd)
N           -3.41927672835971       -0.70028810296558       -1.51959303226110
C           -2.61821477099281       -0.31771036953811       -0.48348118009368
N           -1.44167061264637       -0.91878898555237       -0.43156421796038
C           -0.32977745476395       -0.58322164250682        0.16102191881643
N            0.54993765901927       -1.49735562972585        0.50116698636410
C            1.85730321357307       -1.29337252947915        0.54625273041899
N            2.58491211415636       -0.41899151246091       -0.13937360563751
C            2.16677215791242        0.77229203388232       -0.55408545295986
N            3.04738799762580        1.40850870315400       -1.37179178965202
H            3.95419394893601        0.99022848754931       -1.48629082857963
H            2.94795286276911        2.39417825477652       -1.53612985928515
C            1.01525551616433        1.47136626218528       -0.14871920427410
C           -0.10367957179233        0.87318479090631        0.40582046347863
N           -0.98959118869758        1.51393661879473        1.13320778760828
C           -2.26684356213247        1.28217976505569        1.31945596044637
C           -3.11420776322172        0.56825270745191        0.49038627487576
H           -4.18179210891589        0.71697743795340        0.56604317466928
H           -2.69157581994214        1.83430361804538        2.15197838386007
H            1.00252455084270        2.54559924431999       -0.27642521758724
N            2.56741458149989       -2.19154230520188        1.27053935879125
H            3.55871513026905       -2.23764640438975        1.11411220359409
H            2.08324808155533       -3.00694830866195        1.60241698696370
H           -4.40718580744681       -0.53081710226594       -1.44901652741358
H           -3.12090191571060       -1.49889911722725       -2.05328911338292
