25
 energy: -43.444160205186 gnorm: 0.000753527692 xtb: 6.6.1 (8d0f1dd)
N            3.30499018728766        2.60351834847468        0.13674442929120
C            2.29297221104427        2.07509181134473        0.01629920941266
C            1.02674391732338        1.46702512955577       -0.14760459597983
C            0.02068663681249        2.35947957892371       -0.64652419926386
C           -1.31633198011699        2.23140566251784       -0.55733616344495
C           -2.04284152960999        1.15246566027915        0.06141912259005
C           -1.55857456201935       -0.12952246259749        0.24395117237945
C           -2.43965344726315       -1.06749131487962        0.81325439710426
N           -3.18095694308217       -1.80941642054234        1.28661658127972
C           -0.26011580956972       -0.68024758546816       -0.12779396676445
C           -0.23280480493748       -1.96020756222356       -0.61253299819249
C            0.91535175420452       -2.73140147367615       -0.94340424766092
N            2.08249183015264       -2.70255962764251       -0.40449994833610
C            2.46781778700192       -1.82513274179863        0.54533606626777
C            2.05451399934541       -0.54964037599217        0.73334891367546
C            0.93548946985336        0.11559483050953        0.10121346209175
H            2.62500626425882        0.06632747417864        1.41846911661909
H            3.30790874103307       -2.18623772314552        1.12854271558750
H            0.78045730061260       -3.50693710280468       -1.69142584184591
H           -1.18725714798909       -2.41649754909079       -0.84632983872350
N           -3.31497608781330        1.44068907607496        0.42249051090231
H           -3.68621958520678        2.36324635439486        0.28869712917695
H           -3.89128068977894        0.73879390598948        0.85481988063809
H           -1.93044229323811        3.04713217818090       -0.91602808652014
H            0.40812988169796        3.27614956153255       -1.07461833038425
