22
 energy: -40.277717275912 gnorm: 0.000945999831 xtb: 6.6.1 (8d0f1dd)
N           -4.82211196217949       -0.87275072619438        0.60556059697505
C           -3.76687856079403       -0.49231292820600        0.36371204043032
C           -2.46411275111884       -0.04086435104250        0.07811106814110
C           -1.69508012179220       -0.74007641049398       -0.90588589874445
N           -0.42517906036043       -0.72498792620766       -0.98562344973444
C            0.53134496187327       -0.09899011583629       -0.29654102797613
C            0.37032822659245        1.34493571697466       -0.15470112922532
C            1.45733293422000        2.20635965859181       -0.50556874568463
C            2.77870921040254        1.88923765991614       -0.39584224725780
N            3.33518521653903        0.90978868564480        0.32907665222433
C            2.82345453054500       -0.22164731239203        0.66853968640699
C            1.62376415049998       -0.81529882519663        0.18226782268425
C            1.51239002308278       -2.22029368746440        0.25107696914293
N            1.43067458196517       -3.36242937168772        0.32339952725128
H            3.44295999020243       -0.82715863287461        1.32332330134859
H            3.51552137769061        2.57653793195576       -0.79734838312097
H            1.19297964778111        3.18615210749002       -0.88214222894335
C           -0.84299458592439        1.85565339286164        0.27190283229461
C           -2.04016104613584        1.18555286274610        0.56056735952024
H           -2.76775984405602        1.74701317946707        1.13508864342070
H           -0.83617182664776        2.91298229030695        0.50628564676222
H           -2.21823231588643       -1.31333263435833       -1.66390156621691
