31
 energy: -52.984409498449 gnorm: 0.000723247976 xtb: 6.6.1 (8d0f1dd)
N           -3.54517244891490       -2.12634535495137        1.64251907239555
C           -2.85952829784593       -1.38944315627614        1.07811963784188
C           -2.01646493901961       -0.49522197049289        0.40823383039680
C           -0.76913483178640       -1.04997797865371       -0.09823183367724
N           -0.80211661222789       -2.41537226598211       -0.41251083334010
H           -1.55623005415541       -2.91448585648575        0.03915006739120
H            0.08374272888803       -2.88878598894107       -0.30504727321389
C            0.35662624937906       -0.33389235956770       -0.30019176469907
C            1.56446597900057       -0.92609790957439       -0.92825290069382
N            2.72599205322820       -0.98086008096266       -0.38057180304149
C            3.05019696921963       -0.30647462348964        0.76094041358885
N            2.71300466103747        0.89826163206402        1.09441409164876
C            1.69478978041620        1.58169991458085        0.51553052358668
C            0.56920131309991        1.09484133540008       -0.06800345303219
C           -0.43797178938748        2.00684544464454       -0.61447310130439
N            0.04654995964706        3.12802139628052       -1.22390626066205
H            1.02537315825753        3.16969246484600       -1.44418628438934
H           -0.57928756529222        3.70928686839031       -1.75441893054458
C           -1.78081515670888        1.83219099824788       -0.49145713741414
C           -2.48123879078182        0.78902754552096        0.18716172214614
N           -3.77534029919402        1.08574870503969        0.52519829525272
H           -4.27267859067309        0.42853936567738        1.10387698223405
H           -4.03827275781817        2.05219860994586        0.60718244181074
H           -2.41435780192688        2.62611523954805       -0.87164809296455
H            1.78541225439387        2.65300369083398        0.66373626425458
N            3.95674571225484       -0.95530856459113        1.55167155845859
H            4.48005315632423       -1.69682638764290        1.11804741521789
H            4.43895101623801       -0.38037612458239        2.22201005779967
N            1.40909532053076       -1.38304995552191       -2.19096227948452
H            0.48199353304491       -1.59357628080801       -2.51702284026802
H            2.19718906147186       -1.80836796228909       -2.64933601929332
