26
 energy: -42.377586720814 gnorm: 0.000502035661 xtb: 6.6.1 (8d0f1dd)
N            1.99634346192474        2.59664592587236       -1.99140629903399
C            1.89269734005915        1.64486133022134       -1.35261255744055
C            1.76389683499010        0.47865223753103       -0.57539014072351
C            2.92081312120587       -0.21557771975259       -0.31362277160485
C            3.08446563799842       -1.38470901591044        0.43698901816383
C            2.09039033147380       -2.25394405071999        0.82567084486527
C            0.72950276772199       -2.20579292129786        0.53417531999918
C           -0.03859239652991       -1.16769580138147        0.02240966417861
N           -1.25317398808049       -1.50204748823662       -0.42718779583898
C           -2.38778843095689       -0.86951992260513       -0.40733101151515
C           -2.69341694745229        0.32084000768833        0.31074927280256
C           -1.76962177114609        1.30228479238480        0.57690873597923
N           -2.17893078701162        2.44728410861605        1.19121792389154
H           -1.56849523770585        3.24486177930855        1.20237452732540
H           -3.16038294520657        2.61018706099617        1.32983277121043
C           -0.38941832775141        1.27426106251521        0.19289597786587
C            0.41561683351420        0.21007081078218       -0.09459174208268
H            0.08271625219982        2.25001533669278        0.16738376757018
H           -3.73456250540660        0.51766627225649        0.52650538755301
N           -3.41251786595747       -1.49439767010437       -1.04821891243157
H           -4.27041521124166       -1.00337274243258       -1.22133316959280
H           -3.17793420974773       -2.27271920449498       -1.63960431272576
H            0.16181467308210       -3.10481839605153        0.73838773526786
H            2.41734726843628       -3.14474607811745        1.34935818655631
H            4.10365147149246       -1.66159564769193        0.67031845019451
H            3.82839789249514        0.22763973693010       -0.70998917533363
