23
 energy: -39.209183099931 gnorm: 0.000434630216 xtb: 6.6.1 (8d0f1dd)
N            3.98905472291221        1.01402522153038        1.70865633254201
C            3.12849563675792        0.51338288852568        1.13792634268521
C            2.05407307806823       -0.08315061564421        0.44399822038305
C            2.15471148777547       -1.40424699682089        0.08639858682338
N            1.40498373115768       -1.97735381559825       -0.86731426839621
C            0.18575210995859       -1.77892191718576       -1.12821358810822
C           -0.75596803406138       -1.01442357944675       -0.27519619047509
C           -1.90856442404000       -1.52204580501524        0.21608803154050
C           -2.84806936691066       -0.80678962218966        1.01327969852968
C           -3.00132146329265        0.54296595636392        1.00722497053354
N           -2.48918704698423        1.40907596060940        0.10963361978492
C           -1.39251552003242        1.30741723603758       -0.53915799698089
N           -1.18514083422545        2.07384042201310       -1.63540567490601
H           -0.25112595445797        2.21734286202504       -1.97660576202725
H           -1.89540672805461        2.74094068596182       -1.88491111856650
C           -0.30034913092173        0.35409468218082       -0.18622054835877
C            0.95488812665800        0.77500305012277        0.09467650526471
H            1.14356754425381        1.84069170351637        0.14688595580638
H           -3.72640061636420        1.00462827730480        1.66611148797096
H           -3.51330995514520       -1.39369589384799        1.63031869144374
H           -2.09184327626599       -2.57882286887433        0.06677251206921
H           -0.18952020415373       -2.17757764068260       -2.06600347207960
H            3.00187161106818       -1.99441779688560        0.40990236802124
