23
 energy: -44.805679585514 gnorm: 0.000766649011 xtb: 6.6.1 (8d0f1dd)
N           -5.57039238657345       -0.74877183491803        0.38122549044929
C           -4.45117045037653       -0.55056414709516        0.23009355405304
C           -3.06744108459202       -0.32938333672964        0.05886720307784
C           -2.38886270273909       -1.10905143219197       -0.92409617042433
N           -1.12889094779759       -1.33376122236292       -0.94648246499972
C           -0.15620814584730       -0.88079552535073       -0.16656329319231
N            0.69377175089606       -1.70863159606985        0.35711684252045
C            1.95975692957679       -1.59066584141621        0.64717222478603
C            2.82339819491079       -0.62302288690349        0.12178577111751
C            4.21294046037572       -0.86874797980973        0.19623218306758
N            5.34027637949425       -1.06977708887957        0.25366190320876
C            2.41397778264993        0.62658966343195       -0.38117921980817
C            1.15406485811820        1.19744177405851       -0.32935809061131
C            1.04822157207248        2.55068459864931       -0.73035760511384
N            0.95127951142581        3.65042679192059       -1.04027293833137
C           -0.07870052967155        0.56984361139102        0.04036722901869
C           -1.17569283605835        1.24266041641112        0.54356224901345
C           -2.47746932700604        0.75049731121817        0.70106412091974
H           -3.14410628101100        1.36510389225223        1.29437442328623
H           -1.00244107506390        2.25028353116030        0.90079964297933
H            3.20981472055890        1.27242160866837       -0.73616761590634
H            2.36542981022125       -2.37992394123129        1.26935062227328
H           -2.97171121756243       -1.56435751260327       -1.71754299058443
