33
 energy: -63.626305675481 gnorm: 0.000705790128 xtb: 6.6.1 (8d0f1dd)
N           -0.62422254233428       -4.06671877425505        1.71124130359843
C           -0.87834083013597       -3.06853550804928        1.20357019448970
C           -1.19194358123239       -1.84337017662973        0.57391899838716
C           -2.52684819590198       -1.54098097470286        0.49504945459504
C           -3.15592094957191       -0.45257590486647       -0.12842820457511
C           -4.55330213568228       -0.55990207415246       -0.28602008554653
N           -5.69119254554990       -0.63513281333362       -0.42676764630696
C           -2.55488227487523        0.73655184123377       -0.57849894049852
N           -3.32749162330099        1.63075712696985       -1.22637384886441
H           -2.96779409052112        2.54105919833918       -1.46257673666539
H           -4.31286523010145        1.45202866344833       -1.33311710338624
C           -1.19879550921257        1.10720976844865       -0.31495883071025
C           -0.90025507822567        2.45353372214724       -0.63806667815120
N           -0.69921416773626        3.52170926129602       -1.01156720395838
C           -0.10204471370856        0.35144539143232        0.10796048696707
C           -0.04306510940274       -1.09524320262925        0.09898764884854
C            1.06141640697576       -1.81713387568134       -0.26384571530915
C            2.36102684281331       -1.39628264520395       -0.65084174661789
C            2.96570587707607       -0.18707031870624       -0.28629366921567
C            4.32289985210122       -0.02984025536687       -0.62224793000825
N            5.43192844676348        0.09030766155480       -0.90515931664317
C            2.38453639735408        0.85799047604028        0.49381438898349
C            1.00942523832633        1.08982440152362        0.63099188633022
C            0.65104817987047        2.21877861551145        1.39874546355733
N            0.39693014185909        3.08953922892003        2.10540739131916
N            3.23717652016670        1.72937987282028        1.07006193879963
H            4.22648476119717        1.65651043707987        0.90195189008538
H            2.88111066416877        2.54095062815591        1.54789724090642
N            3.09041137282511       -2.29429837220975       -1.34449427575971
H            2.71795822195252       -3.20619114507594       -1.54138389847131
H            4.05009933196230       -2.10111202885000       -1.57822087541510
H            0.91813481727882       -2.88989886902566       -0.32385566669661
H           -3.20193851219761       -2.28429085718478        0.90560393183254
