26
 energy: -41.561991951512 gnorm: 0.000396572872 xtb: 6.6.1 (8d0f1dd)
N           -4.10856203874439       -0.45932496353362        0.90492717651126
C           -2.81259629711925       -0.42484093782474        0.40550572998279
C           -2.07715932182372       -1.57000153131795        0.38104476304572
C           -0.80980157801730       -1.73842660802079       -0.24945401745413
C            0.11606061889048       -0.78482782782452       -0.45705741921075
C            1.36278720302983       -0.99750515497429       -1.21184737181327
N            2.54027176765450       -0.79250914568861       -0.78805215479838
C            2.82981408023019       -0.17201766637904        0.39937097757771
N            2.26102072043565        0.89642074449616        0.85317563700531
C            1.05329052993821        1.34433858840529        0.42166348239227
C            0.02807665875899        0.63312304346968       -0.11611718388332
C           -1.22333249151945        1.30212013255497       -0.50044286607341
C           -2.45574978062400        0.81864551938677       -0.22648170498844
H           -3.29905563774666        1.45263616096576       -0.47773483185884
N           -1.07430451481201        2.53823480583472       -1.09414893102318
H           -0.17090280063518        2.74407781326450       -1.48707139873234
H           -1.86274680203347        2.89988792802216       -1.60634970065803
H            0.89391083883499        2.39140572905048        0.65430160854398
N            3.93943670472810       -0.64794315005142        1.03745436869585
H            4.56325028737192       -1.21715505870089        0.49066813833907
H            4.35339285914026       -0.02817535345028        1.71362530619814
H            1.27856972621816       -1.31753541123965       -2.25005537084514
H           -0.55489629035714       -2.75128871470914       -0.53957954568089
H           -2.52949848949827       -2.46368409887411        0.79245552787709
H           -4.31794279936446       -1.23568689343054        1.51236495322845
H           -4.48180468043503        0.42098766047025        1.22227737912134
