26
 energy: -47.974224121846 gnorm: 0.000954339459 xtb: 6.6.1 (8d0f1dd)
N            4.20644225588696        2.33260090059970        0.11012525818191
C            3.21395962417186        1.77326743475707       -0.04442319451740
C            2.00969041975173        1.06752595863939       -0.20561837005289
C            1.95247581356872       -0.27053980204184        0.23874084551647
N            3.03307136111102       -0.76781223781858        0.86914630647916
H            3.84171122158923       -0.18257246075530        1.00510829109305
H            3.09806323101484       -1.75056642495302        1.07878130963584
C            0.88839009772876       -1.18869031328095       -0.05736973672097
C            1.24691554040748       -2.54591382253276        0.08811234640749
N            1.58448775709545       -3.63833848535447        0.21205720206572
C           -0.46520563991826       -0.94299990017779       -0.34224914503840
C           -1.30871057060933       -2.03583975446023       -0.68089867516018
C           -2.65684003926525       -2.16880154151767       -0.49237751909781
C           -3.54460706989758       -1.30588686037051        0.17152374814519
C           -3.30926192616823       -0.01449888738730        0.56886244208925
C           -2.19360199423809        0.78647731930951        0.27547158968529
C           -2.32004497257140        2.16289717696164        0.57912067373608
N           -2.43622640323567        3.27032909201349        0.85597569962824
C           -0.96838294239996        0.41394787385925       -0.30465065553127
N           -0.26786387312185        1.36933501505693       -0.90457013052014
C            0.98007002688016        1.65824213230360       -0.96860017995660
H            1.23665539316452        2.47330670279809       -1.63671252888843
H           -4.11340975836549        0.49865572910154        1.08256008327456
H           -4.52647293291547       -1.70733616629761        0.38148609262821
H           -3.08429428824067       -3.10800647867285       -0.82032248761150
H           -0.79504505862813       -2.89657196478260       -1.09292880757126
