25
 energy: -37.843085097977 gnorm: 0.000299685087 xtb: 6.6.1 (8d0f1dd)
N            2.73611415282136        2.20175372067631        0.82736253520186
C            1.93580481333284        1.19486950771831        0.34880195986542
C            2.50159605223260       -0.03090887281362        0.11219306736773
C            1.86462372269337       -1.22639498403061       -0.31683290641612
C            0.51889295964035       -1.50147164346070       -0.29551688616844
C           -0.55534955995709       -0.66849530804755        0.11614809913490
N           -1.55749408707862       -1.26527395615532        0.68402866045594
C           -2.81600944335615       -0.91506171118661        0.91132731648890
C           -3.55873493882145       -0.00903316934115        0.20586914542879
C           -2.99389470223834        0.98233239063845       -0.62895799889591
C           -1.69008082920609        1.35903143006364       -0.71166564508062
C           -0.50986387565261        0.77808912911832       -0.11984820915257
C            0.58562211983578        1.56492893323527        0.06977751022115
H            0.42522645781948        2.63533577414998       -0.01380789742241
H           -1.47170935327180        2.20373357450810       -1.35642697628232
H           -3.70112694362482        1.57861132339612       -1.19458313192238
H           -4.63353203204206       -0.01459464157515        0.32016633569640
H           -3.29967590597195       -1.53444461986466        1.66104669733243
H            0.22814977679532       -2.52425235859225       -0.50197180756574
N            2.71335826258331       -2.21633716531363       -0.75563192076865
H            2.33480664978875       -3.14496457750206       -0.83859251838040
H            3.67990254070928       -2.16368115233989       -0.48141227152949
H            3.57588673397183       -0.09923371341068        0.24194375239226
H            2.40319785600860        3.14775144505545        0.75754967164986
H            3.73352813238748        2.07680510327431        0.79460563905004
