25
 energy: -42.650863098526 gnorm: 0.000709688823 xtb: 6.6.1 (8d0f1dd)
N           -3.84595637614124       -2.11532765793539        0.47055110143954
C           -2.92683052529874       -1.44922251726320        0.27745196569112
C           -1.82549631569363       -0.61542194901423        0.03286602073743
C           -0.63542913557307       -1.24083696405821       -0.45918858762844
C            0.62684424200592       -0.75389551835325       -0.41697243192421
C            1.74416090683401       -1.53782620454678       -0.95541489946780
C            2.93996731182310       -1.66779949484142       -0.36849246520565
C            3.31807975195340       -1.05427182995063        0.89474507930523
N            2.96663812914555        0.07443171946765        1.36424731357106
C            2.08232340242655        0.91865283280380        0.74796210890101
C            0.99272777223857        0.58735036027044        0.02735569753364
C            0.07653680351984        1.63903528430149       -0.48410157157064
N           -1.18625369385325        1.70532709264168       -0.26665159292950
C           -1.98688721153693        0.74821927780686        0.25078641715372
N           -3.08117445507178        1.22868826717803        0.90605285295028
H           -3.28352297373156        2.20785074321828        0.80117487051127
H           -3.85154007661798        0.60095501402971        1.06672962493196
N            0.64766882771933        2.59630284907299       -1.24156824495756
H            1.64336078911501        2.62784550338622       -1.36094740470923
H            0.06934087982314        3.30827081952019       -1.65221766718371
H            2.25356411689306        1.95758544035428        1.00833605412761
H            4.03616976908111       -1.60483318921571        1.49653824964451
H            3.68199645711995       -2.31938011987630       -0.81252789892393
H            1.54734736586791       -2.07626124382145       -1.87689759060923
H           -0.76458031684559       -2.25704849247486       -0.81283077418897
