31
 energy: -48.157396985207 gnorm: 0.000803101583 xtb: 6.6.1 (8d0f1dd)
N           -4.22171750053946       -0.36751457550735       -1.08902611877492
C           -2.91228542453515       -0.42264527186134       -0.61316318568647
C           -2.60941476225650        0.54937582430130        0.40696846888226
C           -1.39269631890998        0.99689064666863        0.78619255189754
C           -0.12899313826838        0.59019428570101        0.14670777936855
C            0.82278046823543        1.48934907145150       -0.23861772438096
C            2.10108367614803        1.13872833785175       -0.78192491067808
C            2.80106303075582       -0.00644929727531       -0.54858959071785
N            2.49861029023094       -0.96276148315307        0.37167631939478
C            1.31286178475106       -1.29257547186395        0.72665503964351
C            0.05420661947728       -0.85469512447789        0.07752827678856
C           -0.82178150867540       -1.74391979008915       -0.42580841032154
C           -2.10813215173621       -1.45349454088039       -0.97944712819215
H           -2.50830104899548       -2.18348279580544       -1.67285576924731
H           -0.52253684267789       -2.78688854276423       -0.45807082282652
N            1.15991870557870       -2.07851716805784        1.82506638460511
H            1.98969861693003       -2.44470187259006        2.26036685238095
H            0.29371961413419       -2.57344359279852        1.94524742032080
N            4.06185045775959       -0.18757921520899       -1.10253702854768
H            4.39422925270609       -1.13769352364939       -1.05785579622095
H            4.22768781244292        0.27622779515393       -1.98059787984356
H            2.59241240621423        1.90073635367232       -1.37495439248396
N            0.57452162065261        2.86412331570630       -0.14185453168301
H           -0.40395956986173        3.11222354334547       -0.13515824872160
H            1.11622721070784        3.42084823121591       -0.78591365040756
N           -1.27994752854312        1.93568430798618        1.79573948976729
H           -0.35185053778824        2.07985463815797        2.15771366443370
H           -2.02166581576062        1.96871258593603        2.47698819865317
H           -3.47591840216847        0.96786867461998        0.90725861432273
H           -4.39248828982600       -0.90075590858791       -1.92766251657231
H           -4.63593006118152        0.55142510140258       -1.10688557765198
