25
 energy: -43.453887886041 gnorm: 0.000523267176 xtb: 6.6.1 (8d0f1dd)
N            4.58114601511103        1.21402898838474        0.05565246386526
C            3.44675614310688        1.02641481143770        0.08906449443337
C            2.06129876547372        0.77542797859167        0.13105737849832
C            1.26372577764079        1.85936066576811        0.58061366504341
C           -0.07878208112495        2.02768401077680        0.50309985639804
C           -1.04204791505947        1.10617567030234       -0.01828187145232
N           -2.06869673704835        1.60374561489539       -0.62152492478978
C           -3.27978301592782        1.17947930427547       -0.91236769693909
C           -3.97073660739407        0.22377271251680       -0.20321616812215
C           -3.33672249818801       -0.73826248030279        0.60070025268107
C           -1.99906419495050       -1.03278464647186        0.67186746015244
C           -0.87031711044030       -0.33506117986086        0.14842897628089
C            0.31661303992401       -1.02070051017382       -0.07592686076403
C            0.21375989042488       -2.42642162122398       -0.14177990034142
N            0.15903544879776       -3.57340230648480       -0.20605243563173
C            1.64614452625942       -0.50413549394760       -0.25527451530638
N            2.56949223472917       -1.36329825198321       -0.73871561199724
H            2.32913126264685       -2.32577866680498       -0.90815036282377
H            3.53816278206646       -1.08991384747881       -0.76624317796946
H           -1.73884863651161       -1.91572015510664        1.24452776278412
H           -3.99340603802546       -1.41249391186148        1.13625083763076
H           -5.04361010299166        0.16850971835358       -0.30996065901887
H           -3.77287190160958        1.75097234398829       -1.69029631069778
H           -0.48760009412592        2.98941818528440        0.78025915227616
H            1.83760193311090        2.69896206172609        0.95560469371284
