22
 energy: -39.497706068644 gnorm: 0.000972339861 xtb: 6.6.1 (8d0f1dd)
N           -2.27035202498278       -2.74307106134921       -1.00459436558822
C           -1.93510077748529       -1.70306225784752       -0.65403182324481
C           -1.54916040681755       -0.40538988216358       -0.25180944671465
C           -2.40232797421372        0.64929924235022       -0.65410362609752
C           -2.42371241708184        1.93995924208232       -0.19852805237669
C           -1.52818169152180        2.44916243585133        0.77191142236532
N           -0.32824278908544        2.05508787956555        1.01014909115807
C            0.33538392712561        1.00138576491337        0.51525446732522
C            1.64644645577011        1.11149307786065        0.11042263142584
C            2.51170043519177        0.02797010921557       -0.21166956360298
N            2.49091488482218       -1.19319417214721        0.30877271059630
C            1.50014712246618       -1.65036551429644        1.05279390592662
N            0.23928750324032       -1.36284220138422        0.99044185871170
C           -0.33071798918275       -0.30240603411055        0.43006509828907
H            1.76249321380002       -2.47238211832006        1.71123095353858
N            3.56726202734970        0.28076548209241       -1.00817779557792
H            3.75890511504856        1.20841145591590       -1.34001193525465
H            4.23643870805832       -0.45457919821411       -1.15567690433236
H            2.02737754666331        2.11393668375510       -0.03543766754864
H           -1.85301088407102        3.29816726899160        1.36597433871976
H           -3.23769917660029        2.58035925012491       -0.50571571777053
H           -3.20377022799523        0.34813794171453       -1.31926622124777
