29
 energy: -55.163520427383 gnorm: 0.000815966048 xtb: 6.6.1 (8d0f1dd)
N            0.62133780808901        3.96199357776263        1.29030724612753
C            0.74623881999399        2.87554654056332        0.93725179286643
C            0.91613724861006        1.54739623782429        0.48908328390843
C            2.19022993378717        1.02812654213265        0.70746947112331
C            2.74751467363740       -0.14686732138500        0.22520675702834
C            4.10736337417084       -0.40957868105195        0.44961565976156
N            5.21753052874134       -0.66333819376984        0.61162077666988
C            2.02421986096551       -1.06102728874328       -0.61202850428690
N            0.73211002343229       -1.23026721041276       -0.57606816508107
C           -0.28548689868974       -0.54076892192329       -0.10858818105245
C           -0.26385325184452        0.92130662989228       -0.02283752631306
C           -1.34195702512153        1.70608487573303       -0.37957958988119
C           -2.68004327508312        1.30119999549626       -0.58986446396637
N           -3.29387150069344        0.23889614133170       -0.09329772059444
C           -2.74544442973241       -0.83429755174687        0.44688552318910
C           -1.40717806289394       -1.29358271057271        0.28602450809273
C           -1.18047819949245       -2.66167643625254        0.52281283735812
N           -1.03906828475685       -3.78165976940246        0.74263569192762
N           -3.60660098657294       -1.62625587382410        1.11398760587933
H           -3.31844610163537       -2.53285095137592        1.44108221417908
H           -4.57956810347757       -1.37493080353327        1.11777888646121
N           -3.49157659229787        2.14479416293321       -1.26029595774965
H           -3.16586386671607        3.04864515785465       -1.55194197567137
H           -4.47260729337697        1.93188387984630       -1.30366798468072
H           -1.15497999783622        2.76641475043932       -0.49739907304341
N            2.71537769234074       -1.85120415479328       -1.45777865832720
H            2.21932439451270       -2.57886667722122       -1.94312429026533
H            3.71715307841285       -1.90471494959125       -1.38203949912365
H            2.86448532164909        1.67668468518769        1.25710378654604
