30
 energy: -54.072337708887 gnorm: 0.000505146517 xtb: 6.6.1 (8d0f1dd)
N           -4.53762218721328       -1.20566506645418       -2.20789219557331
C           -3.73494558791460       -0.70281126498941       -1.55784635721188
C           -2.74497889086551       -0.10709833086397       -0.75301981026747
C           -1.81897945174240       -0.99991176436754       -0.10300752119516
C           -0.58694856416913       -0.65984783254300        0.33201489060374
C            0.28319652158608       -1.63561551932204        1.03165423005950
N            1.47919552089821       -1.93657171334089        0.67173426587884
C            2.23059274399621       -1.31497772261534       -0.26131162154765
N            3.10243057795185       -2.13601686562787       -0.90576037045166
H            3.86527014598302       -1.72989252958595       -1.42057691055771
H            3.20422209188268       -3.07109945698335       -0.55294875625165
C            2.25136270144624        0.05588026285141       -0.49417211643764
C            3.32097433645479        0.56989954337868       -1.23780381979654
N            4.20576480805190        0.99611391817975       -1.84123190788695
C            1.27517378233140        1.00119683109082       -0.00001029536856
N            1.70238843805996        2.32377349986055        0.12203229095188
H            2.54650824670235        2.52992375069152       -0.39440728875809
H            0.98423117443430        3.01971188881420       -0.01911114435998
C           -0.00734454134358        0.67021036258863        0.31039797585176
C           -0.97060311600633        1.66029407857307        0.86906475869350
N           -2.10355413867618        1.95145957320174        0.34053347130724
C           -2.76008441232100        1.25453597654614       -0.59799641320624
H           -3.47807002990241        1.84395665160009       -1.15564598021000
N           -0.61154576068061        2.24286196865449        2.03250325277269
H           -1.23589794797436        2.91301567241120        2.44885476491970
H            0.35623307319228        2.24240790405878        2.30397519213112
N           -0.22802643340025       -2.21337280301787        2.13472671765858
H            0.32745182381702       -2.88332295193932        2.63902781314931
H           -1.20800379684304       -2.13023407488095        2.33758618081052
H           -2.12421053173522       -2.03759868506746       -0.03613871350799
