29
 energy: -50.335511753748 gnorm: 0.000616918346 xtb: 6.6.1 (8d0f1dd)
N            2.51337629108174        3.57061271295743       -1.79732539539248
C            2.05853340799723        2.65332123925171       -1.27797020703780
C            1.48397330010849        1.53822489869096       -0.63121289500348
C            2.23044555120365        0.40731088220201       -0.51593686939028
C            1.87614672992183       -0.78195145474092        0.19972457074216
C            2.94981448410312       -1.57962390959269        0.64096446651366
N            3.80334434806314       -2.25829001541033        1.00578451843524
C            0.60018250911306       -1.24360195963214        0.45862186188963
N            0.39256547452697       -2.30890495692635        1.26319630860218
H            1.17339273017080       -2.78855639134319        1.68114967634564
H           -0.51810597692914       -2.73320527118954        1.29324044360435
C           -0.60171101268526       -0.62036930807701       -0.11547468198240
C           -1.54515814440466       -1.35536980116227       -0.78187317603857
N           -1.32123226110952       -2.70805060582537       -1.04128945792725
H           -0.35483540138734       -2.97887402114550       -1.15310552094028
H           -1.91250087418703       -3.08719966375458       -1.76588025694223
C           -2.77601184694772       -0.81591717012068       -1.28325820028232
C           -3.43187273894502        0.26876829482074       -0.80325961786854
N           -3.17508832007249        0.93255360795615        0.34108616514420
C           -2.02290162008260        1.08407423206426        0.87595994770516
N           -1.92523774957833        1.48304001125909        2.16523034953788
H           -2.77658342580820        1.70905780862522        2.65180275318334
H           -1.06500706952985        1.88241533026190        2.49744567137038
C           -0.73302174899468        0.79806034760829        0.18512698844564
C            0.17902330043315        1.75294737102050       -0.04128043998422
H           -0.06189775249469        2.78043114392521        0.20300684439739
H           -4.35339582037865        0.58300565235810       -1.27712731632853
H           -3.24411801131884       -1.37100844116999       -2.08560108213956
H            3.23921352022969        0.42656338098938       -0.91195115035845
