29
 energy: -55.158651535928 gnorm: 0.000885162438 xtb: 6.6.1 (8d0f1dd)
N           -0.07959878149752       -4.00591746000241        1.27788143965417
C           -0.55157835553143       -3.00354284142193        0.97724514882882
C           -1.14774417556585       -1.77352643244320        0.62629538096505
C           -2.50755030342136       -1.62460066326454        0.91673422370511
N           -3.36854397169615       -0.76233810985178        0.45799002137715
C           -3.11515108474226        0.34502546919443       -0.24470611697928
N           -4.20454159757642        0.84897937773284       -0.86139811153873
H           -4.17871876688384        1.75644919222313       -1.29409632104773
H           -5.08587254066057        0.39319294029443       -0.69953613220397
C           -1.90618588330142        1.07614662167281       -0.28941644993762
C           -2.01623479395760        2.40952817526167       -0.71587122498709
N           -2.14303084438355        3.49737466594975       -1.07210539919403
C           -0.59688056579382        0.60882623746557        0.02509031230941
C            0.38652230112698        1.53672495105265        0.32457524788086
C            1.77651986986118        1.39289797168925        0.51540104613772
N            2.41380009006659        2.42706386000324        1.10929512137439
H            3.41686637173709        2.42509447755600        1.18418911009132
H            1.90904030447554        3.26006311579715        1.35387285047138
C            2.56863907341715        0.32597635399433        0.04395743161063
C            3.96238191240409        0.42118207832265        0.14058869735661
N            5.10953994395621        0.49228971620504        0.21387965728861
C            2.03000352822740       -0.79100463936830       -0.65971465773663
N            0.83398704262364       -1.28428804476014       -0.46538123986546
C           -0.28158518372876       -0.81815937578480        0.03631015380232
N            2.82022773197368       -1.46516581030214       -1.51877417927312
H            3.80582031876454       -1.26646504962206       -1.55240071348986
H            2.48475440653093       -2.34089868426607       -1.88235771336956
H            0.02440782767323        2.54416672374115        0.49818373593188
H           -2.95787461399800       -2.39856660936828        1.53236203223403
