25
 energy: -47.472791801810 gnorm: 0.000882965971 xtb: 6.6.1 (8d0f1dd)
N           -2.65276001325554       -3.08915518823181       -1.20208510437018
C           -2.22609929376759       -2.07330363457314       -0.87884947839445
C           -1.68965613351005       -0.82392492183989       -0.51430781275517
C           -2.41120372087348        0.32703326853768       -0.79858950625014
N           -2.26062760211793        1.54197224194649       -0.32039544295885
C           -1.21553848608502        2.09148172315441        0.26832100046829
C            0.14247032237761        1.64741605541587        0.17915054033845
C            1.15764272104205        2.60191046630797        0.35510990910225
N            1.95748261821282        3.41033426769218        0.52682608434820
C            0.50633574165699        0.32347053572457       -0.06503857445568
N            1.69338640146492        0.00303673525671       -0.51789172695602
C            2.43825090717678       -1.07148072641891       -0.39845521833001
C            2.33435825305084       -1.98882384963968        0.68645088944670
C            1.15096397510424       -2.14762808132516        1.35799112898442
N           -0.03912756317962       -1.77727063939312        0.91069444631718
C           -0.42810766442817       -0.81241373323338        0.15322367944848
H            1.10781724243763       -2.75311011147096        2.25498777170224
H            3.19528421428520       -2.58290981359335        0.95085100396081
N            3.43061074600648       -1.21151407626047       -1.30244008810677
H            3.57588027375082       -0.48204359555164       -1.97854217727259
H            4.13947177264703       -1.90998466254232       -1.17388233318998
N           -1.46131520650568        3.25783391269771        0.89626756783289
H           -0.70134594912064        3.83052582472206        1.22233401926231
H           -2.38800945904273        3.64346313794533        0.83619259952182
H           -3.31196807102365        0.21320945807185       -1.39491484329274
