26
 energy: -47.187852001923 gnorm: 0.000573803763 xtb: 6.6.1 (8d0f1dd)
N           -4.92064043241359       -0.78468273664288       -0.13224526986733
C           -3.77455082942286       -0.70539258187413       -0.19841015882235
C           -2.37602345575354       -0.59745801226511       -0.26305810709160
C           -1.68560321421460       -1.60771678799465       -0.96978530276003
N           -0.44574906420870       -1.94015265952733       -0.88203854704290
C            0.56755221519342       -1.33125854752990       -0.25130903876730
C            1.51978684974317       -2.09706032051379        0.39321201705413
C            2.77131173979705       -1.69242603253665        0.88703953268107
C            3.49756154590432       -0.58667073668658        0.54685215027890
C            3.05259441291260        0.39793091684053       -0.39088598837076
N            1.80743424621026        0.73333666207889       -0.58919518932181
C            0.68031986114930        0.12672352417390       -0.25900938120944
C           -0.41608602309870        0.93611742268695        0.08442595880154
C           -0.09369749127045        2.28136270590363        0.35428756823289
N            0.13362433443983        3.38486710393236        0.58394559886571
C           -1.78060736203516        0.56877085231946        0.26443681431108
N           -2.58136240703469        1.46047924440467        0.88553087630061
H           -3.57463848943788        1.29872901691741        0.91738620062790
H           -2.22380406347436        2.36780837927406        1.13538098043920
N            3.97768925394898        1.10670004192544       -1.06912950710902
H            3.66775359393852        1.86807151874198       -1.64787406421293
H            4.95179349193895        1.02764308004852       -0.84079271847621
H            4.50279286225495       -0.48084457736434        0.92896574483836
H            3.26030416225961       -2.40511693164301        1.54002376715945
H            1.23911929448964       -3.12743711927419        0.56653883077276
H           -2.28179970231049       -2.24818738129547       -1.61364013810872
