29
 energy: -55.949852290477 gnorm: 0.000551828362 xtb: 6.6.1 (8d0f1dd)
N            0.64533327871819        4.17564623419534        1.19872088326248
C            0.82083987439657        3.09215991078777        0.86231675404527
C            1.04272470310610        1.75351243649945        0.46543519157753
C            2.35903320943577        1.33949962442900        0.48346708190086
C            2.92615573389526        0.14142791020392        0.04182022536978
C            4.33586981688500        0.11880429324595       -0.01092953954997
N            5.48334714611917        0.08196592187151       -0.05804345650375
C            2.26475935090390       -1.05328871426214       -0.33368519411780
N            3.01825119231897       -2.06300742936497       -0.80848633474089
H            2.60240939228250       -2.96029449932003       -0.99795119147356
H            4.01999870050485       -1.96740392458451       -0.85032102994467
C            0.88057276142140       -1.30186374806603       -0.15204659157350
C            0.47419506431771       -2.64916236524535       -0.28545581025318
N            0.17194683859428       -3.75003115605837       -0.41376393145822
C           -0.17245355731983       -0.42656341162278        0.16435719280325
N           -1.26672584612513       -1.01285324967953        0.62400873190291
C           -2.53827904382047       -0.79248811690149        0.52497495601304
C           -3.12185327887105        0.11440826864163       -0.44593750408314
C           -4.44688259118710       -0.12584557923055       -0.84326446977987
N           -5.53064856473971       -0.36026740964115       -1.14657322086363
C           -2.47275455001415        1.26662834380281       -0.83545318270130
C           -1.20597066318775        1.72166515784304       -0.45239824411321
C           -0.12306223272104        1.02287767426038        0.06172944772678
H           -1.01869488186372        2.76768429867393       -0.66269510106039
H           -3.04991472832519        1.95083364135025       -1.44604316850361
N           -3.35948160164180       -1.47017271341255        1.34079079468862
H           -2.96716270334576       -2.15503235706916        1.96435341139199
H           -4.35428885412303       -1.44668183864883        1.19306675559910
H            3.07521643938995        2.08608321110632        0.81091841594223
