26
 energy: -42.371287147687 gnorm: 0.000411747175 xtb: 6.6.1 (8d0f1dd)
N            5.12377808264271        0.17832114528177       -0.15184439165883
C            3.97301984667843        0.22122109384418       -0.11147466343752
C            2.57208725800087        0.24568645538940       -0.05860698861519
C            1.89566617341506       -1.00329823233902        0.10678339604129
C            0.52944173062453       -1.21058113166717        0.11286705903270
C           -0.61454416830236       -0.38118265641124        0.02316007436259
C           -0.56854374270070        1.06368575333659        0.01538574201787
C           -1.73091518438211        1.86357171010349        0.14684890615882
C           -3.07739725520217        1.57034540371745        0.20479470352113
N           -3.75649794093913        0.44981600020101        0.07548546103884
C           -3.16710635994761       -0.73944579480478       -0.08520386975549
C           -1.81636454964507       -1.10387026177997       -0.05897295323803
H           -1.68446461142872       -2.17892387688026       -0.12758827693148
N           -4.07135814596855       -1.73302887756297       -0.25976280727506
H           -5.04419854680131       -1.48447007418291       -0.24261427485061
H           -3.79762300620142       -2.69276455045623       -0.35819799482756
H           -3.73506242691582        2.42369236796223        0.35375045765184
H           -1.52455636376413        2.92467355591094        0.22511096143716
C            0.61589415154284        1.81763975805417       -0.11160072507127
C            1.95062558876566        1.48167241677677       -0.16867797922176
H            2.63123349385057        2.31690764315570       -0.29508872960786
H            0.44237484770266        2.88523863763795       -0.18019800319948
H            0.28192956583487       -2.26402508991023        0.20686663768222
N            2.69216703088798       -2.09308180826883        0.25150240273687
H            2.29366087647702       -3.01060104065143        0.33289126474925
H            3.69181679867722       -1.99588880375755        0.20978270645739
