30
 energy: -54.855204997717 gnorm: 0.000739649196 xtb: 6.6.1 (8d0f1dd)
N           -3.69436879335184       -3.46168501458660       -1.18227014991659
C           -2.98526305851126       -2.64034645519720       -0.80947913467655
C           -2.11935131920348       -1.61431619241303       -0.36393829710848
C           -0.80172647050741       -1.70760267876404       -0.69858410682692
C            0.24764286138142       -0.80416968013510       -0.31597268007786
C            1.49704923822544       -1.30776243672459       -0.08835462724298
C            2.66067345754382       -0.59923691865958        0.32135128448483
C            3.68943883504148       -1.34423092685602        0.92115384639654
N            4.55077816398400       -1.93239850339367        1.40714333249253
C            2.89004990972906        0.76370809822297        0.12189919741067
N            2.20910062086595        1.50998364635834       -0.77049069211218
C            0.97015749801360        1.38827664908823       -1.08601617458648
N            0.52638090861694        1.97965905900423       -2.20860064245948
H           -0.45423802861765        1.99636243693703       -2.42366060608604
H            1.18334564351632        2.42286304734218       -2.82798595542883
C           -0.04808948467747        0.63502279015910       -0.29910841818047
C           -1.13056129985594        1.26653989042393        0.19539662955077
C           -2.25358728665235        0.57197446702128        0.85018861495365
C           -2.97313512793489        1.32904756973973        1.80110798281362
N           -3.53453866809985        1.96880082103622        2.57191696145360
C           -2.71287391572740       -0.66007395048123        0.54114052319160
H           -3.62529773962423       -0.99453686089283        1.02234392492146
N           -1.30641992370947        2.63851807619816        0.04946939088134
H           -1.96150454281721        3.05627118438788        0.69432444458517
H           -0.46225362138076        3.17828478875764       -0.06751398476496
N            3.94271280217855        1.38858313320639        0.70921737475391
H            4.21884725513984        2.28270908389973        0.34118284373601
H            4.64196363614162        0.82469268796796        1.16409232833211
H            1.60355392188191       -2.38562144215165       -0.11483762365386
H           -0.49844178341023       -2.59332353098363       -1.24818013704332
