25
 energy: -43.452466843166 gnorm: 0.000762245701 xtb: 6.6.1 (8d0f1dd)
N           -5.37785044123464       -0.16278470108150        0.41162588720271
C           -4.24216055974831       -0.10984055510243        0.24438467457305
C           -2.85331787616142       -0.01565064095691        0.05569782993841
C           -2.01323209194480       -0.96763744665789        0.62983254777948
C           -0.64439976994110       -1.12780633690484        0.45696217798498
C            0.32350817554143       -0.22716755659433       -0.00301645417597
C           -0.05506990575640        1.16023577433459       -0.22156592569159
N           -1.16670254482185        1.38333332745770       -0.92508382947516
C           -2.35733567116790        0.91909419535560       -0.89225594316835
H           -3.02970530460133        1.28489755726436       -1.66199553751762
C            0.68440260629848        2.25827323600452        0.18471116271542
C            2.02575235374333        2.29810180935494        0.55788646176008
C            2.99546119088948        1.34063734317295        0.39875382587082
C            2.86014603037073        0.02301451936289       -0.09351693477504
C            1.64989613665901       -0.69133580707506       -0.21703027446094
C            1.77364763860967       -2.06046166350989       -0.52124814151204
N            1.90963906936549       -3.17308254670986       -0.78263170972664
N            4.00636381166662       -0.63433231609918       -0.37944394194585
H            4.89556675784358       -0.19912951956037       -0.21134925330128
H            3.98330929865498       -1.59904996370128       -0.66482817359686
H            4.01115416044965        1.63290686448233        0.63328847448691
H            2.37160028304521        3.25438615774007        0.93022706838128
H            0.15470576323265        3.20129113180732        0.16411606931458
H           -0.24803859200858       -2.07081709290801        0.81420888441070
H           -2.50891473488896       -1.74878469476971        1.19446629204154
