21
 energy: -39.792410361785 gnorm: 0.000740977845 xtb: 6.6.1 (8d0f1dd)
N            4.99395176413787        0.60754637599086       -0.34702080339552
C            3.87447224852405        0.40457640759338       -0.19503983026532
C            2.49750623904198        0.15629025209378       -0.01224819926597
C            1.84332761191782        0.89759340288518        0.98913489026485
N            0.56446082123143        1.10443955170062        1.09467759312234
C           -0.40380212156642        0.48131197920877        0.46210558890280
N           -1.47498726386677        1.11047750346662        0.05329825929169
C           -2.68399975220252        0.62507670875550       -0.18154921205161
N           -3.27673925541986       -0.40225044390263        0.45376152376202
C           -2.54833228533590       -1.36084990740474        0.97344690671434
N           -1.32435068566039       -1.70594270200609        0.65683710234047
C           -0.35371629165810       -0.97366901363370        0.17143104556866
C            0.68640030824995       -1.46041362794641       -0.63192781190912
C            1.92551676901719       -0.87386619902655       -0.77889975072458
H            2.59921952765744       -1.34730066751356       -1.48409561365771
H            0.48673079401167       -2.37235295089544       -1.17860894174988
H           -3.06995842273826       -2.04995581771231        1.62843072359696
N           -3.46241362231612        1.32239253163920       -1.02396030808309
H           -3.13173945555515        2.19990513099468       -1.38452289173825
H           -4.43838997666933        1.08872087746774       -1.07339922059323
H            2.45274425799939        1.44472461184477        1.70071400986965
