29
 energy: -49.534110234346 gnorm: 0.000855414364 xtb: 6.6.1 (8d0f1dd)
N           -4.35624037030669       -1.35258367345958       -0.69862736841338
C           -3.35494966042904       -0.83251468476117       -0.45954567612849
C           -2.14859595412605       -0.20126405783874       -0.13853274014637
C           -0.96039723640356       -0.80501945971168       -0.47655188271358
N           -0.95091429387523       -1.93701608373507       -1.21896993093691
H           -1.82065334650936       -2.37250265869494       -1.47912884880718
H           -0.09397092657299       -2.45444983860259       -1.30759302629520
C            0.35215342248639       -0.26972595762986       -0.09163444333713
C            1.30148038491902       -1.08570256856395        0.43887338997238
N            2.58046478811256       -0.75212170199809        0.80830297787029
C            3.32790494950879        0.11105119431370        0.21692765597907
N            4.60883280126971        0.21692192740438        0.66798044683579
H            5.15218893807097        1.02503520794762        0.42006247725324
H            4.81940479004104       -0.23989531795755        1.53914888780584
C            3.00898778698482        0.95081657649168       -0.93552645127509
C            1.79146381297655        1.43465999369093       -1.20706013592469
C            0.57135274240319        1.13707484127008       -0.47322695073744
C           -0.33613810273593        2.11783693420553       -0.26789656948830
N           -1.47426209561034        2.08427251406335        0.47480812559722
C           -2.24466333579471        1.06477828812807        0.60048160043882
N           -3.29430011726250        1.16403980780893        1.46768832367443
H           -3.48048261726603        2.08378734002150        1.83130248407863
H           -4.08183693433568        0.55037934445293        1.33820859391339
H           -0.10534224494649        3.11847197390314       -0.61863982206478
H            1.68883036202762        2.13660587293602       -2.02911870904508
H            3.85486719830703        1.25330293288037       -1.53941404272954
N            1.02822950020788       -2.42620535710814        0.74110329575667
H            0.10321360005491       -2.60275942052046        1.10762943388916
H            1.75286217280567       -2.81180100993793        1.33072887307765
