25
 energy: -43.457969816289 gnorm: 0.000927182377 xtb: 6.6.1 (8d0f1dd)
N           -4.19580978273252       -0.57010091520607        0.24542383341780
C           -3.11725018471019       -0.17473860413461        0.22395839169125
C           -1.80933856934817        0.35484990144494        0.20625613099104
C           -0.77633831290881       -0.49694191547977       -0.17973930030394
C           -1.09851884198999       -1.79169914056869       -0.69938018888600
C           -0.38937923517741       -2.94842862353522       -0.61358305798237
C            0.83358723534014       -3.19173518725771        0.05227784211127
C            1.71385255896500       -2.26239226465588        0.52188119672526
C            1.65920861590478       -0.85944317152197        0.36283464114697
C            2.84282656928631       -0.15768652914171        0.68335308280101
N            3.80655784525838        0.39990490368528        0.96476853752880
C            0.60127488347738       -0.05460997705778       -0.07431518636719
N            0.92869447967867        1.17425187285236       -0.48650229633198
C            0.38316965941218        2.33128109247780       -0.32379573204850
C           -0.74587148349651        2.59702177554999        0.54372596886755
C           -1.72975458579292        1.68916141639310        0.72364222825864
H           -2.61540415507158        2.00931807214338        1.26110643349290
H           -0.86263998031776        3.60061386577940        0.92445493601141
N            0.89942180204181        3.36703454879878       -1.01151135985893
H            1.70956980947104        3.20950236626550       -1.58579758068064
H            0.59877148060102        4.30721001589060       -0.82877505125930
H            2.61936802762785       -2.62709382293655        0.99250998649779
H            1.10283572823856       -4.23177419108212        0.17597142602707
H           -0.85513730727040       -3.82301404521917       -1.05083989140131
H           -2.07393257198666       -1.85380323558322       -1.16801448074863
