27
 energy: -51.706825733263 gnorm: 0.000817795779 xtb: 6.6.1 (8d0f1dd)
N           -5.48585928314968       -0.83541690307558       -0.01457858859338
C           -4.34602622597928       -0.71240311535050       -0.07399108279262
C           -2.94503759424563       -0.58924185905218       -0.14926896580343
C           -2.24918743556714       -1.41720142477121       -1.06122307345326
N           -0.99952812875936       -1.71406443902633       -1.01128802823109
C            0.03553429295496       -1.26894930393655       -0.31312933299058
C            0.98923119490957       -2.16087236787037        0.13362827691333
C            2.30281280528426       -1.83312024414984        0.52755053196935
N            3.02268140614170       -0.80108672505265        0.10519928556320
C            2.61619573958172        0.30941585215596       -0.46910209625940
C            1.30364067025939        0.88829579478745       -0.36932563965670
C            1.22348157222685        2.27020103249360       -0.62605878015398
N            1.22338178456198        3.37875593302757       -0.93186571030960
C            0.13894355419881        0.17907885688627       -0.08131435710712
C           -0.98480956627675        0.82411237653677        0.50447922219312
C           -0.68786641289264        1.98718365125582        1.25682040389823
N           -0.47813517339645        2.89403805353548        1.92790066943978
C           -2.31589798019997        0.41480794837858        0.58134427911371
H           -2.95578719615383        1.03110165285130        1.20336530828675
N            3.57306824433610        1.02405782662434       -1.08370412485961
H            4.52068783144922        0.69020997299564       -1.04470581001679
H            3.38284031517068        1.95551899569474       -1.41432150663078
N            2.99191020364828       -2.71894457358689        1.27112173457524
H            3.95918639470301       -2.53487774611034        1.47206731371988
H            2.56956710378176       -3.57466241596723        1.58192300230431
H            0.70275378968459       -3.20302820286471        0.16635119335678
H           -2.80932784077275       -1.90006156450881       -1.85551944117673
