24
 energy: -39.723271686171 gnorm: 0.000684021857 xtb: 6.6.1 (8d0f1dd)
N           -0.75669939055485       -3.13410944366225       -0.91211063992360
C           -0.88959114967981       -2.02738924885596       -0.64216239941130
C           -1.08013891636734       -0.64661650770807       -0.38601815970300
C           -2.40151327225346       -0.15799835602589       -0.69859871472306
C           -2.98258934517958        0.94031960293303       -0.18222911059651
C           -2.39407998643235        1.85064059959566        0.76095756667246
C           -1.08989891286402        2.10013676529813        0.94927580336644
C            0.02793194594221        1.51715026737873        0.21016387717329
C            1.04535538191451        2.30558644809237       -0.22051203845637
C            2.23209025782263        1.91567832188721       -0.90629618864674
C            2.86997244739569        0.72212844069112       -0.82225637813093
C            2.47768742772178       -0.35777589803880        0.01812135395695
C            1.22315744875111       -0.62225208620873        0.45783729093686
C            1.02034767883318       -1.65180812089507        1.40403022150493
N            0.84918132662860       -2.45016619592561        2.21035010297375
C           -0.00591264678202        0.07561948643851        0.04052722470883
H            3.26535187507503       -1.03058189577427        0.33605822728488
H            3.81948585051870        0.60981733059933       -1.32721135614110
H            2.71188727770403        2.69980325480024       -1.47829528849556
H            0.91318503457539        3.37326107025331       -0.09277244622593
H           -0.80447574410387        2.83110897888396        1.69639330534318
H           -3.10305967939530        2.41778277587252        1.35119993161676
H           -4.01653828368836        1.13379659842483       -0.43487837742833
H           -2.98792626888199       -0.80715420175421       -1.33642851015588
