24
 energy: -43.732188368557 gnorm: 0.000834704996 xtb: 6.6.1 (8d0f1dd)
N           -4.93340110977342       -1.35040493600771        0.16091223713730
C           -3.82423711272596       -1.07799274605673        0.04497204845023
C           -2.45962923056504       -0.75664336564705       -0.09917514828134
C           -1.66215183532323       -1.61024799593286       -0.87477752564198
N           -0.36605021720932       -1.70404237841842       -0.82934728840515
C            0.56280122265254       -0.89826757886703       -0.37097415459903
C            1.75050297730820       -1.41242483075067        0.16075985384772
C            2.99249784300056       -0.78738867892852        0.26855324318871
C            3.38550240673512        0.39236961491213       -0.42658258053751
C            2.54290834723212        1.24305383731590       -1.08801198817024
N            1.24639868809218        1.38853371277806       -0.86329515605972
C            0.38531863938580        0.56062935002603       -0.37507736456420
C           -0.78450943174702        1.06096514268667        0.30014945174735
C           -0.60917154530620        2.32319689748090        0.91163459428631
N           -0.47342620051318        3.33997527681490        1.42578001468417
C           -2.00082612060664        0.43555334284033        0.48763094964754
H           -2.72910969174794        0.98487944243756        1.07450917972011
H            2.95625497382169        1.99759625949644       -1.74619706860313
H            4.44734056073864        0.59134522035625       -0.46975790238485
N            3.96547444524347       -1.43918028464850        0.94471723240957
H            4.89865339861507       -1.07071838919473        0.98072630297954
H            3.78162303844045       -2.32707312872360        1.37618003891295
H            1.68244668615652       -2.42769754801991        0.53237641872804
H           -2.14936554440525       -2.34888165033940       -1.50268439329273
