24
 energy: -43.727938938813 gnorm: 0.000375429387 xtb: 6.6.1 (8d0f1dd)
N           -2.99361835821126       -1.91749220680252        1.87579997929738
C           -2.54617644462480       -1.08031762002532        1.23041060579639
C           -1.97661716362270       -0.04304602563712        0.46538914600552
C           -0.75621922473568       -0.37710181256348       -0.25171764857403
N           -0.63617125153512       -1.54773901396857       -0.75412881951605
C            0.42186686293940       -2.23403237328569       -1.17202188829118
C            1.67462382491119       -2.16209700839216       -0.64135046632268
C            2.17157336523032       -1.07483772208931        0.13573473176991
N            3.36429069823481       -1.26260206903329        0.74311133501384
H            3.82474558250812       -0.49983360907163        1.21084499861601
H            3.84558850045617       -2.13883724348773        0.65094246922226
C            1.59473422146326        0.20386678145360        0.18389106954888
C            2.35615783652704        1.21393536786470        0.80266220669205
N            3.00220951822044        2.02541720188227        1.29992621313260
C            0.30378558833089        0.63764168953530       -0.27286730637275
C            0.08285681044830        1.94098584593324       -0.65691896854064
C           -1.18093715883142        2.51056951151450       -0.91617323337257
N           -2.31872228174890        2.21218692879497       -0.37185219568694
C           -2.57853650257584        1.19034200443650        0.44007024606848
H           -3.45958056560727        1.34099379741365        1.05593955762748
H           -1.21449788443059        3.37759831699842       -1.56906677651902
H            0.94909998904403        2.56406898837471       -0.83990565956282
H            2.36933209098483       -2.96658279344362       -0.83811057235135
H            0.17959176431422       -3.01165636781602       -1.88571769868932
