28
 energy: -45.810890424103 gnorm: 0.000752709610 xtb: 6.6.1 (8d0f1dd)
N           -4.42054182738189       -0.76135107500343        1.45076788228456
C           -3.44415146078927       -0.37139438434812        0.98752444123766
C           -2.24364772144537        0.09839058440089        0.41958056423880
C           -2.08905340657419        1.45227049204420        0.27838930453949
N           -1.16662943544629        2.06245788772193       -0.48443792229368
C            0.01027112262435        1.61811698236243       -0.73480644965713
N            0.69985235463496        2.10964475933562       -1.79020778240602
H            0.27996716213977        2.84236820771858       -2.33733731541340
H            1.69969618275648        2.00610809239900       -1.80553796265949
C            0.70456527079281        0.53708588115572        0.02504700046571
C            1.84914763221878        0.77359744107059        0.70982601578852
N            2.36148466214395        2.07303669054028        0.78507645954176
H            1.66921475668850        2.80558028496515        0.71765192105013
H            2.99409603605046        2.21729916364774        1.55825861320944
C            2.63147890364191       -0.24782055350578        1.35699982859566
C            2.71565752600815       -1.54188284307792        0.98151743357681
C            2.04405506518508       -2.19118644588587       -0.09360866704239
C            0.86523466544774       -1.83777125652815       -0.66621785057685
N            0.33073338479911       -2.57395276607602       -1.69081519550069
H           -0.46196966836375       -2.19955654680285       -2.18231542056714
H            0.93551987300947       -3.19247253455599       -2.20422740193430
C            0.02708289293067       -0.73268351485833       -0.17248598805780
C           -1.30725392843342       -0.90367732693247       -0.01864728997007
H           -1.71314530227346       -1.89893711502397       -0.15170965055154
H            2.50825333913242       -3.10164817392840       -0.45347092178826
H            3.43503460435144       -2.15922514671773        1.50571157015053
H            3.28157611769159        0.09580084827994        2.15200634687906
H           -2.85155582884035        2.11923766229971        0.66240113296166
