30
 energy: -49.247398978847 gnorm: 0.000834802155 xtb: 6.6.1 (8d0f1dd)
N           -4.21958051693071       -0.64182148877738        1.16247523531607
C           -3.18878438931676       -0.36098138647447        0.72902235451699
C           -1.94936865124317       -0.02066731922439        0.17523410965832
C           -0.82652403744859       -0.71538081208840        0.54887031529530
N           -0.86561864870144       -1.63939779521365        1.54010679318384
H           -0.08524758285010       -2.26285186045906        1.65045293864742
H           -1.74472570136176       -1.87672363928209        1.97053191491015
C            0.49010208974556       -0.48557471604810       -0.06785461422263
C            1.19860256883704       -1.51255426522045       -0.60673951484320
N            0.63343252818111       -2.79240666102723       -0.68491699018379
H           -0.37051027516885       -2.81039209832167       -0.79546459420346
H            1.09746069848299       -3.39736248336657       -1.34642930773550
C            2.55381566076702       -1.41548013988412       -1.08525515055057
C            3.50372228273970       -0.55858099352969       -0.65474013772798
C            3.37847707428314        0.47439469286731        0.31721592336238
C            2.24335418994887        1.12980965172808        0.66621045629599
N            2.27276878237052        2.13209783169095        1.60133908785048
H            3.06282132273147        2.18541392870803        2.22212865560446
H            1.39671557040174        2.48329498243718        1.94615230615112
C            0.93818478236003        0.90798499701964        0.02453523791021
C            0.17799475162500        1.95526291871778       -0.35695406918514
N           -1.02775822171798        1.94333426192051       -0.99083296865206
C           -1.94332890749595        1.06018606779525       -0.82167568887105
N           -3.05852527858260        1.14256048241575       -1.60912519719825
H           -3.15025630490290        1.99015739563762       -2.14480963738018
H           -3.90883843930270        0.71776431152169       -1.27659976021840
H            0.58149728914505        2.95763431263911       -0.26816250876061
H            4.30149712603366        0.80268644997628        0.77985610122704
H            4.50665541855839       -0.70473653122451       -1.03767322986203
H            2.85044819991183       -2.18909387643391       -1.78355087083611
