25
 energy: -47.473503095030 gnorm: 0.000754905277 xtb: 6.6.1 (8d0f1dd)
N           -5.48618456719041        0.01594326871050        0.06670249242089
C           -4.33943595128512        0.06889177372136        0.04196736476651
C           -2.93644414137923        0.14843093254625        0.01409881771102
C           -2.17972260276610       -0.42422062760806        1.04539777225073
N           -0.91788223675536       -0.73596821491867        0.96289855202978
C            0.07366446410380       -0.33318311543361        0.22261347892700
C           -0.03559995297277        1.07086946829068       -0.29089491908049
N           -1.09215039613830        1.27931746928519       -1.04701415692556
C           -2.29747634483015        0.80470573902524       -1.05882865941387
H           -2.87059908524263        1.04040812549880       -1.94952201984238
C            0.90979820786076        2.02676119221182       -0.01216525509115
C            2.23805932967938        1.71609051570594        0.36053730657361
N            2.90977373618469        0.61926309437023        0.05051870261932
C            2.47605031951039       -0.56540338311753       -0.33243820234731
C            1.18773229877726       -1.12288176506374       -0.06932003384721
C            1.06840616778371       -2.52133392678006       -0.04677161020112
N            1.01207250775025       -3.66980207156772       -0.06604355681356
N            3.40639706544994       -1.36119061547731       -0.89531802508412
H            3.20680535203410       -2.33433943545668       -1.05456371957116
H            4.35553528721636       -1.03297005977042       -0.93775788648623
N            2.98046471491521        2.67632147629762        0.94894038487895
H            2.59667762036527        3.58605363216794        1.12771865750226
H            3.95792194894030        2.50526896385443        1.10700849838675
H            0.64116358536927        3.06717937291298       -0.12870159962716
H           -2.67059177818028       -0.75923020640460        1.95246141036420
