26
 energy: -42.363047678073 gnorm: 0.000569905419 xtb: 6.6.1 (8d0f1dd)
N            4.52493070083551        0.18855545719976       -0.62551513842375
C            3.44323587177812        0.01005369859180       -0.27726205378786
C            2.11646622022566       -0.19498752963749        0.13873273673081
C            1.88750118598725       -1.26415937361377        1.08929915512058
N            0.84095792587390       -1.97734336156237        1.24081339986502
C           -0.32407001666765       -1.81366462419426        0.55659435483475
C           -0.88860233824479       -0.66992983187792        0.10791563424810
C           -2.20071463899807       -0.70234234576286       -0.56187259865629
C           -3.22930844299949        0.13550715837176       -0.27205274984118
C           -3.22765091716905        1.24250022312282        0.62278317679379
C           -2.16372377648739        1.97798851906722        1.02034044836987
C           -0.81200820223184        1.78663959969456        0.60301530771682
C           -0.24310018474405        0.63847849485817        0.17720725940168
C            1.14139320927086        0.65126824837009       -0.33508121979949
N            1.40670249711524        1.56561731843760       -1.29544127765262
H            0.73175767237470        2.28122046817192       -1.50172839787659
H            2.34201697408138        1.65623131828147       -1.65754061632567
H           -0.17496999518304        2.66210861822863        0.67342882842207
H           -2.34620948593675        2.85073858968806        1.63271744427685
H           -4.20834533201766        1.57522399507084        0.93935416947929
H           -4.17973849137284       -0.08380203132226       -0.74432400768955
N           -2.36377472405772       -1.72204892024812       -1.46272786242871
H           -3.13361185494233       -1.67591301477781       -2.10830532841296
H           -1.55171989298950       -2.23679547852804       -1.75478836769902
H           -0.89222474451971       -2.73485261994538        0.49278836222661
H            2.74277150091894       -1.55421184438508        1.69242176650786
