22
 energy: -42.752351373571 gnorm: 0.000550083584 xtb: 6.6.1 (8d0f1dd)
N           -3.42070952400548       -0.48455799129992        1.44497751026222
C           -2.54729624409480       -0.30578302816684        0.43163053071607
N           -2.99622614168042        0.41586712520233       -0.60661322865839
C           -2.15728977515820        0.98224640873000       -1.44296148423086
N           -0.90268530515965        1.30624088594832       -1.25462182656787
C           -0.05996724354872        0.75634191336923       -0.41330216566365
N            0.94364514050363        1.39089773577224        0.13637758884803
C            2.05058711072128        0.78136217752900        0.56271580814722
N            2.60496617238759       -0.32779279421412        0.08669073654515
C            1.91732411033425       -1.27801655362466       -0.53966894801796
N            0.62646724668487       -1.57774929746357       -0.40137914408271
C           -0.28738830923258       -0.69094926436020       -0.09812297102382
N           -1.41568332893431       -0.98941665093337        0.49670982925859
N            2.64383590437335       -2.14359475805250       -1.27399714730242
H            3.64513741524784       -2.08398238149901       -1.22820309358145
H            2.20236900672814       -2.99085496487347       -1.58404710819341
N            2.77549512243440        1.45920312156036        1.47587348586707
H            3.71711751491998        1.15647813371183        1.65085834496575
H            2.50672987510672        2.40411775175454        1.68597317573513
H           -2.59735842226324        1.36083043883197       -2.36012760851839
H           -3.22777016351253       -1.20191027719075        2.12147540634859
H           -4.36644544585096       -0.17669753683218        1.30211762624601
