22
 energy: -39.501040556550 gnorm: 0.000904311994 xtb: 6.6.1 (8d0f1dd)
N           -1.65935631837262       -3.01946662384691       -0.07172909928695
C           -1.32400617999018       -1.92602290644317        0.05169720030150
C           -0.97904910600028       -0.56806743000886        0.16031221730683
C           -1.99461134639401        0.39080864527856       -0.19278222617063
N           -2.08635682736843        1.63495366459204        0.23912196729460
C           -1.12732662816994        2.27483542437305        0.89064410516834
N            0.15564413402567        2.15236902280699        0.79135712609575
C            0.83017610592401        1.11643406491021        0.27863217765431
C            1.99431760509134        1.30852570844279       -0.44838926861586
C            2.95413467474136        0.35570063167149       -0.80946189180126
C            3.17699227092395       -0.88129571676254       -0.24593251503550
C            2.39282121339861       -1.40863473998607        0.79781563059910
N            1.14875942382704       -1.15457085816328        1.02144290616449
C            0.33968809235562       -0.24690290425364        0.49285800914373
H            2.83013711067714       -2.15003546842423        1.45805859708023
H            4.06236085738028       -1.42924093424681       -0.53297888752775
H            3.68877208672257        0.69256816551208       -1.53097724650993
H            2.14052865355150        2.31646836791605       -0.81414009985418
H           -1.47395825838943        3.10939982716212        1.49318110389764
N           -3.03044847278153       -0.04293777797307       -0.93192181372884
H           -3.80390679285275        0.58402902138214       -1.07411747397430
H           -3.13142755050051       -1.02135015673993       -1.14517490940162
