28
 energy: -49.825889608190 gnorm: 0.000584110604 xtb: 6.6.1 (8d0f1dd)
N            4.32576305756766        0.72959134587453        0.99614137500250
C            3.27074192242256        0.48181961078510        0.60490591656086
C            1.99192611769622        0.16939618177041        0.12327481511653
C            1.89205692133065       -1.04736716486221       -0.69004397079995
N            0.89289480600442       -1.85310558040979       -0.78848927105531
C           -0.33566703402180       -1.67114658976741       -0.21724422665268
N           -0.96361429533990       -2.88028062476880        0.09545766882530
H           -0.50129593383223       -3.65729118638713       -0.35572377040618
H           -1.96284155818299       -2.88784679699800       -0.05503399906597
C           -0.95956540733621       -0.48721040228749       -0.01105402873388
C           -2.31975324904439       -0.38045706119019        0.58296391981670
N           -3.31255477629846        0.19564796255582        0.00318911967340
C           -3.20438479876963        1.02577533105497       -1.05202106734451
N           -2.28478721861671        1.88616650420902       -1.30775392641788
C           -1.07472823072285        1.89888293485631       -0.69133769789064
C           -0.38847093529665        0.84678646741771       -0.16921707223144
C            0.95834701650016        1.04136146172127        0.37705511622071
N            1.15037421018454        2.13504046608607        1.14579948419670
H            0.41402876028932        2.81175115872373        1.24100141535126
H            2.06775130980948        2.35139082962600        1.49985652594822
H           -0.58161311588087        2.86322264519181       -0.77025342165527
H           -4.09661141161209        1.07713727876423       -1.66752857886824
N           -2.47102862826204       -0.89952016065599        1.81734378372809
H           -3.36881458796719       -0.83258800439226        2.26658589146745
H           -1.79559667503668       -1.56133625409215        2.15782256250968
N            3.01186268037921       -1.37423568465980       -1.38518418327510
H            3.03135753909337       -2.27699728544527       -1.82691951442644
H            3.88409356654219       -0.92329264572062       -1.16922460169456
