25
 energy: -42.661198629647 gnorm: 0.000502295592 xtb: 6.6.1 (8d0f1dd)
N           -4.85618213166480       -0.78530490575059        0.97263201749192
C           -3.82038487071114       -0.49312791693156        0.57291209444999
C           -2.54923407475772       -0.12064210673686        0.07819441942059
C           -1.47358321660460       -0.79479805059632        0.54822653794191
C           -0.09131919230970       -0.60388202727588        0.15914276901527
C            0.74804011696721       -1.67987011991619        0.11702619105844
N            2.01641603900577       -1.74997790814474       -0.33105967525670
C            2.84056784909994       -0.74648069681724       -0.34879343527717
N            2.75678885009360        0.39068220716091        0.39433397337969
C            1.66021312986547        1.00817995596621        0.64810471409374
N            1.65179226453202        1.96016940275117        1.60029511089768
H            0.81648685591859        2.48019158846538        1.79738554335673
H            2.47177240147095        2.09625996947819        2.16582196844677
C            0.36454698974730        0.77118944567461       -0.04882544365696
C           -0.27178187595983        1.77847202294966       -0.66438799463743
C           -1.57080796739842        1.72197512618887       -1.29666334259528
C           -2.57533813916126        0.90468956580416       -0.95849427210880
H           -3.53133848397124        1.01444963538906       -1.45492445629208
H           -1.74944659923980        2.46972336994884       -2.05859265770010
H            0.23035256245460        2.73731236681911       -0.72359344263841
N            3.99616363232750       -0.88336221162069       -1.05202104336131
H            4.21483317856079       -1.81002308298805       -1.37554293215717
H            4.75758026323401       -0.27156519871191       -0.81522738499795
H            0.32834243520290       -2.65761704913986        0.33102331057162
H           -1.65650199130247       -1.59254341356581        1.26156821725432
