27
 energy: -46.899542817959 gnorm: 0.000538958451 xtb: 6.6.1 (8d0f1dd)
N           -2.27889029120195       -2.98040314097757       -1.49239191169822
C           -2.23031321847974       -1.93795197472291       -1.00986640397403
C           -2.19858839878407       -0.66210498561625       -0.40821051735392
C           -0.91347998232724       -0.26735455036440        0.09591147462773
C           -0.66686886659540        1.16721822272790        0.23148499785304
N           -1.55261743223605        1.94482884496930        0.81634147754297
C           -2.84791295939589        1.95398449589860        0.91753224642449
C           -3.74662874904837        1.22379833879544        0.14532560040210
C           -3.40061505782533        0.03908945849752       -0.48414578740015
H           -4.19259981142878       -0.47631279775755       -1.01656495049311
H           -4.77879385312192        1.53874225861712        0.11608062076349
H           -3.23076603176890        2.67202900389199        1.63637890034157
C            0.51468373552438        1.77607665848607       -0.19784858342363
C            1.78477051692055        1.24239775639184       -0.36874101625933
C            2.22281399860061       -0.05011572700316        0.04854796831198
C            3.61053571815850       -0.26121298373925        0.04095496659243
N            4.75048366295950       -0.43328255905829        0.03738318878509
C            1.42976645602229       -1.13919224686919        0.45922305562377
C            0.02831024471806       -1.23875205430763        0.35039509344443
H           -0.34861192133923       -2.25187954522611        0.43868398636758
N            2.07103685432597       -2.24502160991674        0.90540124825814
H            1.55240730701783       -3.08899195382686        1.07252430251957
H            3.07534177252471       -2.29712549043687        0.86972596281091
N            2.73490193201716        2.05967222314589       -0.88646072747625
H            3.70080168977561        1.77902297323026       -0.88636307958102
H            2.51329870380944        3.01924739073753       -1.08211929306715
H            0.43361817357670        2.84720448163267       -0.33909386264488
