31
 energy: -54.571277066177 gnorm: 0.000659844026 xtb: 6.6.1 (8d0f1dd)
N           -2.26969179291475       -3.73707801268773       -1.62879185773135
C           -1.98850817962738       -2.73068673563221       -1.15174264512931
C           -1.60985619307710       -1.50068905729328       -0.57162615520459
C           -2.58677978771056       -0.57033023132572       -0.39372544062034
C           -2.46069058974884        0.71360338255975        0.21730743038006
C           -3.64632623441679        1.27902799857109        0.73047955025302
N           -4.59562166396627        1.76224890862441        1.16116698405815
C           -1.31208444919079        1.47618986218155        0.27859089122354
N           -1.28578902896118        2.65456067848197        0.93231571946933
H           -0.47928562227373        3.24984419942218        0.86152730450677
H           -2.11056528012382        2.99608808642967        1.39899536873351
C           -0.06409481380081        1.07823289178843       -0.39202736915237
C            0.56219344780181        1.93083272133990       -1.22846846733206
C            1.82668776765592        1.72386785630843       -1.86886152577439
C            2.85257916821859        0.99941246525664       -1.38003539222039
C            2.88718960776663        0.31339400632615       -0.11343359475470
C            4.16045683035563        0.13309525083356        0.46061165021090
N            5.18934713123461       -0.04024686680936        0.94417328943552
C            1.80661661427551       -0.19332316891320        0.56655709000128
N            1.91400388257881       -0.66351019901502        1.83492456679121
H            2.81915890000327       -0.69207690981722        2.27605905660361
H            1.18311178884410       -1.24657185597613        2.20440150411199
C            0.45181792569500       -0.23792383567573       -0.01848772092589
C           -0.22476891508633       -1.40838639733354       -0.12335284563271
N            0.36800979090291       -2.61221490515611        0.24645531536755
H            1.37080358330921       -2.65482117619685        0.13775962311427
H           -0.09967879946791       -3.43606144964562       -0.10385358937278
H            3.79181290457402        1.00691714588328       -1.91830006268448
H            1.98512771612984        2.27663596584505       -2.78471829384656
H            0.05554071246787        2.85436816485396       -1.48364761804692
H           -3.59477013514862       -0.85065915012752       -0.67670286992747
