26
 energy: -46.402792247153 gnorm: 0.000554459083 xtb: 6.6.1 (8d0f1dd)
N            4.60435132027211        0.80105680937007        0.73030199995892
C            3.51624488513542        0.51916071314211        0.47178805806832
C            2.19233626503885        0.19261396231293        0.16287555875699
C            1.72721878852696       -1.09849982752241        0.47086545130478
C            0.49000863872457       -1.64071971475526        0.06056792499388
C           -0.66338687709233       -0.98694741781995       -0.31534144107594
C           -0.79980505982048        0.47374706937594       -0.15836458389339
N            0.14800125397648        1.28507428050306       -0.59615972303959
C            1.44267093616161        1.15251331857888       -0.59780807438146
N            2.13762755195690        2.05351604574594       -1.32944384576291
H            3.13076602646783        2.14345057423105       -1.19870751736547
H            1.62597593481338        2.81673323419107       -1.73730205200114
N           -1.85641396978531        1.02089518253918        0.37457302037277
C           -3.08624133476779        0.53698183332892        0.47494878000594
N           -3.69937662488858       -0.31102987243997       -0.34252112026533
C           -3.05078703351350       -1.24407924311379       -1.02606435311679
C           -1.74389858960862       -1.66770727306480       -0.92654519445085
H           -1.49884928919870       -2.61110353996090       -1.39974820571323
H           -3.71266346478902       -1.82429866505051       -1.66289235677909
N           -3.85721897810376        1.07906690609154        1.44600626558040
H           -4.84790301533808        0.92043513816872        1.39213510495124
H           -3.51210143493012        1.88801084906681        1.93097197239855
H            0.43275975869239       -2.72335430675165        0.09415595918315
N            2.58340932312493       -1.94039054006529        1.10101971343453
H            2.31618716702917       -2.88884459330146        1.28980079519269
H            3.50794922121587       -1.63195999890130        1.34700542444205
