28
 energy: -45.814461026259 gnorm: 0.000591669041 xtb: 6.6.1 (8d0f1dd)
N            4.16523088366845        0.80686412673279        1.12970221471037
C            3.15996751815822        0.47800522458216        0.67279559207524
C            1.92655652495750        0.08400422535258        0.12771081959185
C            0.83711553094980        0.87055383018458        0.41400280539295
N            0.93490119102467        1.91476820501165        1.27278420953804
H            1.82374310991546        2.15964408814787        1.67647765083218
H            0.16101785818048        2.54703898638668        1.37142465273926
C           -0.49373604369221        0.64538358224343       -0.16457140561807
C           -1.18746992457471        1.67418577917395       -0.71554654646027
C           -2.50263896670548        1.60782821682367       -1.26117279296604
C           -3.44718537039126        0.69501957382649       -0.92293100869130
N           -3.41007340330577       -0.15136209725074        0.13063553892540
C           -2.36156718593731       -0.68012548530360        0.63694164080633
N           -2.42770432092225       -1.24104528461114        1.87035083040730
H           -3.32632626714249       -1.28410966723025        2.32066070750135
H           -1.72193540637890       -1.90130581394420        2.14552213592471
C           -1.01388510154838       -0.70245429774083        0.00052892975082
C           -0.37865020910509       -1.85297320547515       -0.28931139231842
C            0.92709020872442       -1.98461562581005       -0.84815638818896
C            1.95672420260665       -1.10842203512313       -0.71216696297552
N            3.15880723059581       -1.34556955918173       -1.34668483257799
H            3.97767597449301       -0.89421897622954       -0.97092481147472
H            3.30617928347949       -2.27578093902613       -1.70224020725156
H            1.12556750640068       -2.90085876293731       -1.38955013200713
H           -0.92542409052665       -2.77911670701945       -0.15059473763616
H           -4.41411612289022        0.71585159120739       -1.41090281950061
H           -2.77041425022463        2.37905203942323       -1.97031870296181
H           -0.66794134580569        2.61822591998588       -0.83917686636709
