30
 energy: -49.249364657224 gnorm: 0.000767426737 xtb: 6.6.1 (8d0f1dd)
N            4.45182462270008        1.09514675019558       -0.92616681618089
C            3.44417760474721        0.69290627365424       -0.53689404129370
C            2.21328008340871        0.20594475241616       -0.07032383801144
C            2.28290756680222       -0.95842836024457        0.80637870697901
C            1.31687544213928       -1.90588208497330        0.90843722705381
C            0.04080166292984       -1.90673277298133        0.27074751139474
C           -0.68105684365825       -0.84037559080560       -0.13116474765454
C           -1.96214546452218       -1.03784261350041       -0.83410932541600
C           -3.10456621150332       -0.39053530840343       -0.50633078894781
C           -3.23021165263146        0.59928428430088        0.53850379840433
N           -2.35398818043751        1.47146311233534        0.91757433936877
C           -1.09098516515640        1.55072103511299        0.43180319344520
C           -0.27232531044088        0.55989899066892        0.00633796663674
C            1.08212426591903        0.88563659174004       -0.45130791423032
N            1.16392642921434        1.91678000596777       -1.33237835442143
H            2.06681070972294        2.26047519930341       -1.61589053810086
H            0.35919387637012        2.50332901984619       -1.46803108644097
H           -0.68367761080160        2.55326621533619        0.53369830061344
N           -4.48030655049780        0.73354376872467        1.08193254293456
H           -4.53946568311368        1.33425776985861        1.88737541175337
H           -5.10208976363643       -0.05579647234761        1.05430318289312
H           -4.02001166415768       -0.66619490898063       -1.01557095359725
N           -1.95600413645541       -2.00946290273676       -1.80018562706671
H           -2.72149038844345       -2.03916631901791       -2.45285879404594
H           -1.06272730004877       -2.32826857919063       -2.13438254642384
H           -0.41681742572359       -2.88321443272200        0.15977150440971
H            1.54950847768877       -2.78421564075594        1.49788649496873
N            3.45611005943294       -1.07977424494694        1.52478473612726
H            3.65395544764491       -1.98730443322528        1.91336417760826
H            4.25890893700818       -0.57657161612889        1.18138136814018
