21
 energy: -40.564516346035 gnorm: 0.000683725781 xtb: 6.6.1 (8d0f1dd)
N           -5.00855990981705       -0.35570048721976       -0.02639691749650
C           -3.87407411438858       -0.18720324379941       -0.02631043012923
C           -2.48308083858714        0.02822480575721       -0.02844112523741
C           -1.90392797082865        0.89145291202863        0.92063185507661
N           -0.74932940981241        1.46984573366612        0.78060987559985
C            0.33525715905786        1.23425185008496        0.10271312622442
C            1.21351112443875        2.20675837459624       -0.37460564841468
C            2.54606113666358        1.92228009549233       -0.63427427872512
N            3.26652856017897        0.96349541681456       -0.09830612277971
C            2.92771390867644       -0.16035195207436        0.46855218418549
C            1.73003011279609       -0.86715003490943        0.28692085812126
C            1.67993321546007       -2.24872477938747        0.55919215499339
N            1.63427435501112       -3.36904053142228        0.80231030859702
C            0.56338853014694       -0.22217550731108       -0.17069423406639
N           -0.38942758654716       -0.79953003979922       -0.82882898022134
C           -1.66907864429276       -0.61407390505348       -0.97512707972703
H           -2.11034826480238       -1.10599578026161       -1.83367675907589
H            3.72870439515624       -0.64607747140847        1.01589241955566
H            3.13090511175393        2.63264601816805       -1.20915441655863
H            0.83715456730870        3.20757694863002       -0.52984223762878
H           -2.47786132117061        1.21111275571140        1.78306699480488
