27
 energy: -47.687071605202 gnorm: 0.000620400951 xtb: 6.6.1 (8d0f1dd)
N           -4.93676481501668       -1.61121938053047        0.89210874710536
C           -3.88564082778879       -1.28034010038346        0.57300161830881
C           -2.58309697936717       -0.89918570823489        0.17918316887700
C           -1.95734368201192       -1.73644836860927       -0.81552427906349
C           -0.64803736895852       -1.83704337837771       -1.07445827238390
C            0.46063627302225       -1.16312424404042       -0.39408115031655
C            1.56927852881870       -1.88841641539066       -0.11019804339174
C            2.81917839304850       -1.46610432944580        0.45535257039757
C            3.35674126271384       -0.20249830855014        0.31635599856133
C            2.75764784568513        0.88875444345878       -0.32329326952740
C            1.42639474948590        1.10251074680977       -0.57376460495624
C            1.07662508571441        2.26621664253435       -1.29284472073232
N            0.81191119368277        3.17515309329909       -1.94252543479275
C            0.31169469439590        0.26018573153390       -0.16902894977293
C           -0.81826440885418        0.85425478885209        0.35516487021848
C           -0.71301183538578        2.21066499236877        0.75531903582392
N           -0.65670803478932        3.28150298606010        1.16226356751997
C           -2.06814533767983        0.25500748954596        0.68872030477979
H           -2.69661369583348        0.83493063028833        1.35475238409902
H            3.42279059331534        1.69606646841238       -0.60605925076418
H            4.37747059846127       -0.06660093248466        0.64792671104019
N            3.56856509452991       -2.44323345609728        1.02325015299556
H            3.19038073866482       -3.36273808061915        1.16116655826543
H            4.44682785274858       -2.21829876912565        1.45493325335027
H            1.49831619346769       -2.95546586787583       -0.28963004442811
H           -0.33476839080436       -2.51077884687824       -1.86292432439070
H           -2.63991982656498       -2.36082713382010       -1.37887946182273
