27
 energy: -51.701596384789 gnorm: 0.000570696451 xtb: 6.6.1 (8d0f1dd)
N            0.99148077946935        3.34628399311954       -1.75073356491974
C            1.23701959230117        2.36593218236310       -1.20607466575310
C            1.56190532190520        1.12287565782235       -0.62374650291141
C            2.90816596511213        0.81830312821537       -0.49214322891183
N            3.48059224501688       -0.16189690889741        0.17301370922071
C            2.93898618069127       -1.31516392079457        0.52145199439459
N            3.69118097165103       -2.07059539082328        1.34450168789661
H            3.42993985537525       -3.01319079462011        1.56922059400774
H            4.58771618810184       -1.71677599224139        1.63077547090859
C            1.74470805246332       -1.87842371650897       -0.00570104487840
C            0.64897562838924       -1.18116800736452       -0.44670716923830
N           -0.29310153613199       -1.83729548813890       -1.14644853026796
C           -1.57071106157116       -1.77006136709508       -1.10280874856882
C           -2.37160259135926       -1.06387395675082       -0.16946193622166
C           -3.70193498557178       -1.48822758891343       -0.00679515391815
N           -4.78646457968715       -1.83604224359651        0.14915045829447
C           -1.96392956416428        0.10977938976872        0.48259512747767
N           -2.83453293677417        0.72163017327683        1.30935383076761
H           -3.76449096103519        0.34837784533637        1.41215853098312
H           -2.63725914915892        1.64383669254567        1.66302029388568
C           -0.71373888942979        0.78074109806911        0.22977768190077
C           -0.68059445917838        2.12413560824236        0.67184627400830
N           -0.71067999804395        3.18070212863150        1.12177787487827
C            0.47719764983226        0.25788086248265       -0.25726547581052
H           -2.08870847866883       -2.37988319571494       -1.83675728834170
H            1.67295337986034       -2.95734269263036       -0.04036642925580
H            3.61595609920524        1.54657782851608       -0.87644818582679
