27
 energy: -51.708664945623 gnorm: 0.000764323576 xtb: 6.6.1 (8d0f1dd)
N           -4.87077713528904       -1.33204607045837       -0.31579071064562
C           -3.75674631840291       -1.04874726071655       -0.33992986210026
C           -2.40013855736808       -0.67863435741624       -0.35442740201496
C           -2.04395871962916        0.53305206207586        0.28665084703500
N           -3.00262308736667        1.18667456802134        0.97136967290143
H           -2.83243876554392        2.11680654468861        1.31741351761211
H           -3.93963251439897        0.81830048743533        0.99427977893764
C           -0.78625446536953        1.18478364706564        0.14237347141273
C           -0.73976621092034        2.54208948929120        0.52430327918650
N           -0.72981369983229        3.64597718316449        0.84445464798403
C            0.44995548280007        0.65307832683433       -0.26730130268979
N            1.41589307542971        1.49206203935252       -0.58452395034924
C            2.71148645331884        1.40586535524769       -0.44188562378028
N            3.44974882397732        2.30454450239370       -1.11680305783746
H            2.97912767862837        2.99274959482020       -1.67884325741544
H            4.43523849946382        2.39328201615334       -0.94817870372333
C            3.37626348337001        0.50297258257708        0.44984916047702
C            2.89761962777727       -0.72520667644394        0.79145516758652
C            1.73001565155551       -1.37560916623772        0.32180167585518
C            1.64540135412062       -2.76010129596696        0.58793433780585
N            1.59706884591745       -3.88201712913551        0.82444682716745
C            0.62794440223449       -0.79909538701045       -0.32185495141482
N           -0.23710908417503       -1.56074943094194       -0.97239676756694
C           -1.51802293597992       -1.47669916216842       -1.10548221956441
H           -1.94938378785599       -2.17780534025300       -1.81222215133796
H            3.52996974321774       -1.34029594074678        1.42089455551822
H            4.35140996661613        0.79916747337379        0.80834876755653
