25
 energy: -42.658372812522 gnorm: 0.000977599628 xtb: 6.6.1 (8d0f1dd)
N           -4.92564957198369       -0.41511017014232       -0.34282222517444
C           -3.77693922838335       -0.34509081904807       -0.30028205523515
C           -2.38031298161709       -0.23714093060922       -0.22950785007078
C           -1.61922580356924       -1.20733686318244       -0.89562553485849
N           -0.37156043489105       -1.49839209274487       -0.71159080954765
C            0.56064233506203       -0.87440597134006       -0.01004193031060
N            1.40347418726527       -1.60386820079118        0.66559681470329
C            2.66588098776807       -1.39627458279065        0.96218316389667
C            3.52883058971970       -0.50757430410690        0.36321262285944
C            3.13985402924393        0.66256471924903       -0.32748744927348
N            4.13730460454256        1.40191056595419       -0.88775150031460
H            5.09520502205665        1.14675542213258       -0.72789332907554
H            3.94837343664985        2.33227803484147       -1.21530432495146
C            1.85179407981009        1.20361723638326       -0.35032286110445
C            0.63652548947758        0.59520012607685       -0.02556239961632
C           -0.49969019869466        1.34330511698385        0.28098895235274
C           -1.83460500207964        0.93867025898521        0.36500146886083
N           -2.71576661396628        1.80069658283564        0.93405749886249
H           -2.41478780981010        2.71629929214282        1.21545699187037
H           -3.70258779678788        1.61263110985691        0.87930022941259
H           -0.31828139140552        2.38036129896930        0.54409927959848
H            1.78390757119748        2.23311609539325       -0.68594251935521
H            4.59080306554510       -0.65609473966803        0.50593430342442
H            3.06637147998645       -2.10369907755119        1.68083349924124
H           -2.13792996703609       -1.85697255392668       -1.59468759399384
