27
 energy: -52.492379497068 gnorm: 0.000722987518 xtb: 6.6.1 (8d0f1dd)
N           -5.54234373070465       -0.29378912012190       -0.79606461076559
C           -4.42801886345621       -0.21164312015998       -0.53880735328265
C           -3.05055819796831       -0.12004331776756       -0.22533493001839
C           -2.43334643971501        1.09297259518840       -0.48456318961134
C           -1.13975479350589        1.49306713965160       -0.14227991474681
C           -0.84525845101689        2.86832898966505       -0.31351514612313
N           -0.61365216642725        3.97899467895489       -0.47839684199991
C           -0.07660298864743        0.71132618953118        0.35156618094987
N            0.90421265891382        1.33696243036332        0.97707423042917
C            2.18038970664801        1.20534835452979        1.02224645797350
C            2.95646179724280        0.40333863754943        0.16022637005096
C            4.32280257681589        0.69870440404237        0.00952611139108
N            5.44062869021947        0.91750222861620       -0.14076282327841
C            2.45947474829654       -0.79576806447502       -0.39895540061979
N            3.30744431760802       -1.56600218124066       -1.10263599395885
H            4.25993509410741       -1.27033250626638       -1.24479159490298
H            3.03547633636202       -2.48482962022200       -1.40685305863836
C            1.17124079947415       -1.34187913506507       -0.13970017707083
C           -0.00099136063211       -0.73504375850006        0.24404683053980
C           -1.15195976609458       -1.55969842082328        0.55072948376924
C           -0.84774346831358       -2.83977108537560        1.06903972272721
N           -0.58393804315574       -3.87640893319932        1.48479378065381
C           -2.47792792659479       -1.27356824087314        0.35582446966005
H           -3.17876205591779       -2.05882567894589        0.61790695053650
H            1.09903138111608       -2.40544876923350       -0.33902435825335
H            2.68853786016588        1.82696189230745        1.75100999044195
H           -3.05835064572687        1.86414977006831       -0.92110100145484
