29
 energy: -44.723685471983 gnorm: 0.000707516923 xtb: 6.6.1 (8d0f1dd)
N           -4.21518084585644       -0.41223577507282        1.02705709006505
C           -2.89838178486447       -0.38667417103528        0.57500313771696
C           -2.60671280707911        0.68593267845130       -0.34056789751790
C           -1.39985394104269        1.19513562391168       -0.67206985825794
C           -0.11606573667676        0.75519303238947       -0.10111533377516
C            0.81003683861874        1.67184619126961        0.27949385864369
C            2.11808657556059        1.42453754785715        0.77690887810568
C            2.85479572511082        0.29516144952628        0.56257307658788
N            2.56760948253443       -0.68588536499178       -0.33622113448489
C            1.40075597098351       -1.06730786465951       -0.69817611179622
C            0.10239266551399       -0.68380918465746       -0.08604940668504
C           -0.76031813172890       -1.62825708427033        0.33851216490478
C           -2.07019682121563       -1.42325330248852        0.86900253117034
H           -2.46348170216973       -2.22002020434287        1.48868031548489
H           -0.41600459034844       -2.65688513586681        0.33199544577139
N            1.31056694867850       -1.93415432379371       -1.73830321736527
H            2.13100706426109       -2.12671313749614       -2.28547862626136
H            0.40915406904856       -2.23073262735412       -2.06461986695570
N            4.13657699500253        0.17489272996796        1.08232498774885
H            4.50556402686557       -0.76203074918477        1.05248113732899
H            4.31004044203325        0.67217518235720        1.94023668178857
H            2.58632722509331        2.22594022547698        1.33309895705066
H            0.49903185712564        2.71014349791416        0.28188072935248
N           -1.31271414982590        2.26115380851633       -1.54472066780772
H           -2.09358541284362        2.41753619006096       -2.16169068441002
H           -0.40375844816030        2.44476168221627       -1.93654316899970
H           -3.48081412705065        1.15797626931081       -0.77585431415801
H           -4.66116919835100        0.48775144905121        1.11233335220425
H           -4.38439350561796       -1.02152533606307        1.81237741904977
