26
 energy: -42.359137246788 gnorm: 0.000607671439 xtb: 6.6.1 (8d0f1dd)
N            4.02707354904446        1.05120561802262       -1.37432143168103
C            3.10403748111690        0.53238504460387       -0.92564396916406
C            1.95800339599041       -0.07848017203612       -0.38095963052400
C            0.96505500604071        0.81683607643846        0.19776362058626
N            1.43939092492059        2.03014074603613        0.67546159002464
H            0.75430312179142        2.76435058065023        0.76191729872037
H            2.32206867345698        2.33349259126510        0.29262038154209
C           -0.34651406013922        0.50218618638723        0.30046663499593
C           -1.32156439268147        1.38589481780037        0.99125768005862
N           -2.36181917986792        1.89466766868972        0.48845640185375
C           -2.88921166906189        1.59833938557304       -0.72406672588379
C           -2.91695472384761        0.35301067848171       -1.26181276632770
C           -2.17934559306339       -0.76947991186501       -0.78061205124341
C           -1.00917490945873       -0.72729034989058       -0.09016464438943
C           -0.39111857383822       -1.97141055474050        0.39883728155489
N           -1.24209365106781       -2.87429461350216        0.96267574443179
H           -2.18248266766075       -2.58943813640218        1.17263597396414
H           -0.86624896966451       -3.65811648635380        1.46830631339019
C            0.92496907554870       -2.27366496324647        0.21213971914569
C            1.92538905143922       -1.44349532051120       -0.34335908647380
H            2.80619959144359       -1.95621432496889       -0.71212042658340
H            1.23610592262956       -3.28041029493940        0.46353889128253
H           -2.55686414987258       -1.74493833339896       -1.06240348209293
H           -3.60627706451566        0.16329119589352       -2.07366523542402
H           -3.49172318287961        2.39392091248081       -1.14162507654429
H           -1.14052043620360        1.58279593252686        2.04593149497765
