28
 energy: -51.405286599418 gnorm: 0.000919261838 xtb: 6.6.1 (8d0f1dd)
N           -2.45628651264749       -3.57847064550725       -1.30474299014577
C           -2.07430161554919       -2.56971769079598       -0.90690323131069
C           -1.61652368637695       -1.33649914884790       -0.40474372494638
C           -0.21161154945055       -1.29481597902808       -0.07713714946474
C            0.59377861161357       -0.22375370879422        0.04988045180168
C            1.97841977592808       -0.44736951466443        0.52203778585801
N            2.11385782763861       -1.27621951892451        1.57561793897397
H            1.31740876637928       -1.75984330226459        1.95195305460553
H            3.03240974937237       -1.49619825278634        1.92615977547269
C            3.08870104648516        0.08907813710851       -0.09519442395505
C            4.36123231367631       -0.36108915048563        0.30074393496528
N            5.39280047933908       -0.74039631641512        0.63663586788062
C            3.03212253274514        1.04000338896565       -1.17888890442483
N            2.15215305074095        1.94621706163863       -1.36162704037963
C            1.02708848477712        2.12881587098644       -0.63973636729683
C            0.20519864223717        1.18338827655279       -0.10338505647892
C           -1.06894548233069        1.61233400536421        0.41639204117629
C           -2.24619067942008        0.94158903809625        0.43291719441964
C           -3.35072057802298        1.61321137596569        1.00962350248747
N           -4.25472355461967        2.14378002236218        1.47748341664726
C           -2.55434153012363       -0.35728010147727       -0.17145815298759
N           -3.85642984641041       -0.56363430712061       -0.48171242941488
H           -4.55935221140983        0.10314029592564       -0.21367037373237
H           -4.14356770171779       -1.45684466091399       -0.84512652490289
H           -1.08719232171137        2.62344512544264        0.81185570312012
H            0.68587985392366        3.15849995137576       -0.65643278666591
H            3.87069163574386        1.04788919598311       -1.86740748023237
H            0.23578529941405       -2.27807372754024        0.02248702253042
