31
 energy: -58.612860543018 gnorm: 0.000436110129 xtb: 6.6.1 (8d0f1dd)
N            5.13054558017751        0.89387231343561        0.03167509443501
C            3.99448949801856        0.70221128636083        0.04303872246012
C            2.60906410974751        0.46749425391246        0.06362969478995
C            1.80949353302250        1.50972259483824        0.60194279502401
N            2.46848280476683        2.55587094952181        1.16121393610757
H            1.95870579995342        3.38331647206883        1.41507750175716
H            3.47115446296450        2.61115024981292        1.10131679894817
C            0.42071786447506        1.61692139446096        0.52986682837764
C           -0.55077677210724        0.69103855579819        0.16464610024748
C           -0.30745796189793       -0.74879949015826        0.11952710521373
N           -1.20155651471858       -1.61638630472832        0.54390931867109
C           -2.50542788263935       -1.52685316163901        0.69150898067963
N           -3.35251331971840       -0.76222487403383        0.00285331394836
C           -3.01807143502987        0.41769522299889       -0.48444543758858
C           -1.83081226153991        1.17097860057002       -0.20897401689305
C           -1.94798664380657        2.54860882684178       -0.45125657125758
N           -2.09325318064222        3.67384822067543       -0.65329115024406
N           -3.96727364431278        1.00110231778677       -1.24479647339164
H           -4.85002291354638        0.52932757295004       -1.33313781299691
H           -3.88100335749611        1.96254806890372       -1.52641456430147
N           -3.06853480479919       -2.40875663195369        1.54258677412714
H           -4.06518074831522       -2.52888266504974        1.50212274205567
H           -2.49501070009677       -3.15336820208790        1.89880412617960
C            0.89162551288103       -1.31805121135892       -0.35759160077148
C            0.77029910377421       -2.68229797892416       -0.69793066068142
N            0.70772284058954       -3.78950038559811       -1.00205252980945
C            2.18520398091004       -0.76291540259908       -0.48248722413269
N            3.11876863315094       -1.51942164552578       -1.10558140835927
H            4.08501087485838       -1.23897066713545       -1.08889682466535
H            2.88890101510951       -2.45716512542203       -1.38946511914340
H            0.04179704258754        2.60494301317592        0.76817099841747
