35
 energy: -60.657094630663 gnorm: 0.000545076725 xtb: 6.6.1 (8d0f1dd)
N           -3.73700986845218       -2.53615328568273        1.25039269962369
C           -2.90491016845705       -1.86188998619690        0.82315943103228
C           -1.88248503399294       -1.05124773195792        0.30952575321302
C           -2.31394381993218        0.12283961321362       -0.42569209180320
N           -3.54325272326207        0.02565189958144       -1.01129751880453
H           -3.97117850805045        0.86432479033580       -1.36806381766011
H           -4.15178259123991       -0.72737125036516       -0.73739464586352
C           -1.58700681324005        1.28514833787404       -0.55248561008692
C           -2.16852228185174        2.35507897750799       -1.24419322673141
N           -2.63834787467283        3.24681076493889       -1.80442529676509
C           -0.30720003339768        1.55603128304302        0.09612880653474
N           -0.13730057360385        2.86494157829028        0.56621842605092
H           -0.73645379482690        3.53782888793990        0.10761623510926
H            0.82485056433006        3.17223244406660        0.59534762189437
C            0.64241311862925        0.62157113425372        0.28829855687692
C            1.86011628019991        0.89397954623555        1.08976039488463
N            3.06584401894931        0.79509896890703        0.66061115241397
C            3.41357733900402        0.25770730005027       -0.53949333990140
N            4.55296418785636        0.81876445710159       -1.07315881417694
H            5.09564532167645        1.36852265997820       -0.42728810010995
H            5.08455082853038        0.25405911007612       -1.71480836995035
C            2.80731647963347       -0.80572318550752       -1.15000719225947
C            1.58383045752634       -1.42598258176419       -0.76510738391415
N            1.44255716730691       -2.76628454743528       -1.14701387105668
H            2.08060521068853       -3.04154944082814       -1.87913171771008
H            0.49530867821044       -3.05740401307311       -1.34170881490260
C            0.56822409304833       -0.79316282208211       -0.09091750560002
C           -0.58225737781209       -1.51157513587980        0.43200531832540
N           -0.33830180447464       -2.68142443793487        1.06547885497246
H           -1.09487472859278       -3.23040140126242        1.43852487070351
H            0.59818406047551       -3.04388755073657        1.08131096021578
H            3.34297634044145       -1.26884655562368       -1.97005319916310
N            1.64913282263917        1.21628484760380        2.38631349809460
H            0.74331840031722        1.55661550845908        2.65766453205288
H            2.44419989369513        1.43513036637806        2.96271832956148
