21
 energy: -39.005575737516 gnorm: 0.000486010740 xtb: 6.6.1 (8d0f1dd)
N           -3.25167459089029       -0.70119113864642        1.38047036186705
C           -2.40171967564540       -0.26150205393358        0.42304654928750
N           -1.31808588885956       -0.99763640086128        0.23973968297683
C           -0.22264889278264       -0.65973575777745       -0.38479107636755
N            0.54450819189261       -1.50201856819952       -1.03395955252997
C            1.84102966924609       -1.37552137984773       -1.21193260097101
N            2.71871489692211       -0.73611162224299       -0.48187442082975
C            2.35534049968438        0.24319440465490        0.36833431884196
N            1.32263094339206        1.06011555392152        0.25998924209900
C            0.19375656117583        0.78013763476122       -0.35817406731478
N           -0.57228298179722        1.66508145512384       -0.92161068181956
C           -1.88063384388468        1.58981888598150       -1.10860906068275
C           -2.78162733310874        0.83593261384000       -0.39206639655363
H           -3.83047982606187        1.09491134170635       -0.43225717648844
H           -2.25574697834758        2.31980599351356       -1.81743502237123
N            3.24231684034048        0.51413793388380        1.34690678749570
H            3.13819132628688        1.36888974670016        1.86466521060080
H            4.13930466044926        0.06354982028005        1.30119761523601
H            2.25768974277767       -2.00800358206644       -1.98957149747640
H           -3.04868646578222       -1.57968675871475        1.82510069722167
H           -4.18790778670782       -0.34108652347549        1.42231049817913
