27
 energy: -46.902852072865 gnorm: 0.000818507544 xtb: 6.6.1 (8d0f1dd)
N            3.76431703964012        0.39233224563455        1.81755955819419
C            2.91607442928784       -0.14653433316749        1.25861904716156
C            1.87593409892886       -0.80602707763224        0.57303260793614
C            2.03546746701116       -2.15377345995186        0.37066539121181
C            1.19190662711188       -3.04598425202207       -0.30834728004957
C           -0.10784156474743       -2.82801491280168       -0.68261704801944
C           -0.91994995479976       -1.71124438502738       -0.41757428644431
C           -2.29483988182541       -1.87101632342126       -0.69791034639800
N           -3.40739985304474       -2.01595000181847       -0.94600204506775
C           -0.56857486231261       -0.44095453043004        0.07632169156748
N           -1.56649606061953        0.29718652586172        0.53627357170293
C           -1.79095342604708        1.58187354001505        0.54589699405645
C           -1.09756693671171        2.55136177496952       -0.22713211640766
C            0.22861313539318        2.43379761550988       -0.57635570483236
N            0.82666090034518        3.45231181339191       -1.24619175746034
H            1.82415012509596        3.45977826509547       -1.36194582807468
H            0.32371385370313        4.30451781015204       -1.41658004467671
C            1.09492773884175        1.35113791817339       -0.20933698691367
C            0.79618677503423        0.06135180056672        0.12424501191867
H            2.14963615223326        1.59980182118394       -0.24561658863899
H           -1.60325018273076        3.48444286060190       -0.43322402944822
N           -2.82465410867225        1.99112627811404        1.31678473306565
H           -3.20131838234168        2.91523099081196        1.20781828931237
H           -3.39920109087126        1.28243813837149        1.74030618113731
H           -0.62017760357587       -3.65039031135949       -1.16899912042738
H            1.60417262102285       -4.02479683218828       -0.51116104937434
H            2.96192834304910       -2.57389108283674        0.74684743576499
