27
 energy: -51.701914893303 gnorm: 0.000770572779 xtb: 6.6.1 (8d0f1dd)
N           -2.35019118286051       -2.82305463587270        1.60916915822258
C           -1.45201270510464       -2.30864377053623        1.11244868436943
C           -0.31156013801066       -1.66816898491690        0.58474770358756
C            0.84915711441415       -2.41869187074071        0.47860390079120
N            1.96609118440455       -2.13422307440317       -0.15587285044755
C            2.42420403744206       -0.95008225670377       -0.50757461840198
N            3.47515679598977       -0.96227647389245       -1.34757162991609
H            3.99553307390151       -0.11999554713840       -1.52763742298095
H            3.85922098645450       -1.85348412493759       -1.61235747161793
C            2.00018163348510        0.31370127035620        0.02436062942492
C            2.93897150761853        1.36103605528095        0.00145450583147
N            3.73608979595976        2.18671110439579       -0.06699356249752
C            0.72020872343280        0.60139715318408        0.50057027918630
N            0.53152943997691        1.68550138657783        1.23484281749662
C           -0.43368189575724        2.54209121451321        1.29556181206632
C           -1.48577140079197        2.68140750128218        0.38902247105403
C           -1.99888058052923        1.63967905623183       -0.37410745020388
N           -3.02630346469721        1.89589171092629       -1.21389446703268
H           -3.42569951955646        2.81775725605597       -1.24082483446132
H           -3.54020785180964        1.13866516411211       -1.63412232742655
C           -1.61319860075612        0.25501283811896       -0.22396301245544
C           -2.54468323294604       -0.67049479898326       -0.74776123041862
N           -3.31474617028053       -1.35487885731843       -1.25635859794825
C           -0.42567929508565       -0.27519834107168        0.26283028018166
H           -2.00542246186875        3.62814940638979        0.35411701384246
H           -0.34178039024549        3.26397405968754        2.09964539371315
H            0.81526763782048       -3.43773247249754        0.85161367724086
