25
 energy: -47.477846987640 gnorm: 0.000997243750 xtb: 6.6.1 (8d0f1dd)
N            0.08266914754561       -3.73619729948592        1.06800367823244
C           -0.15374891336458       -2.66174983010118        0.74040845509589
C           -0.43599201996403       -1.33392006321328        0.35797489066324
C           -1.68583230009537       -0.81344052908075        0.68724619553893
C           -2.26788841036123        0.37605092653491        0.26647946759847
C           -3.62414701993700        0.58671120679531        0.57266572860205
N           -4.73132683247638        0.79413723926599        0.80473835497499
C           -1.62982743780352        1.39384287795781       -0.52436191523830
N           -0.34042044937203        1.64265795747478       -0.54018360911805
C            0.63646498151055        0.85497273702836       -0.16189541787705
N            1.71982406872644        1.33520412348895        0.37847581043610
C            2.96178983602538        0.89004508681538        0.40260735359739
C            3.52255020331189        0.05298944590416       -0.59647905682724
C            2.73648399050717       -0.79838318629656       -1.33797841918415
N            1.52111544390496       -1.19693535206228       -1.01246123122301
C            0.59308866426999       -0.62756136884087       -0.31339690914241
H            3.16232021391165       -1.33556631215237       -2.17677292555188
H            4.59261483549747        0.05758592182498       -0.73678249602800
N            3.75376240899002        1.41658224646997        1.35947395723737
H            4.71801133591878        1.14951620071172        1.43375089331904
H            3.35390369404159        2.04264349750811        2.03537001869618
N           -2.40787759040253        2.23713424184177       -1.22667360884913
H           -3.40823226597840        2.21156580156987       -1.12338400354110
H           -1.97255868523450        3.01442918678945       -1.69250187579855
H           -2.32975857026134       -1.47159844545007        1.26043032769385
