21
 energy: -40.556475138803 gnorm: 0.000989858234 xtb: 6.6.1 (8d0f1dd)
N           -3.98810091973406       -0.63118650754070       -0.17571661572646
C           -2.84843757794954       -0.75741223051106       -0.15348667804699
C           -1.44759943525315       -0.93269704789445       -0.14769941724976
C           -0.92257289483200       -2.15164603963512       -0.65337302954536
N            0.20333370308558       -2.69837540394570       -0.34217639206503
C            1.23989839397440       -2.19378465554395        0.31304450466304
C            1.64156204738023       -0.87546578801039        0.33797624765235
C            2.95256344156593       -0.56354468083316        0.75211984429217
N            4.01489821858615       -0.29335606829697        1.09145158717627
C            0.78447281875766        0.23772984180565        0.00026251504353
C            1.28599135184533        1.40164023744875       -0.53957798065715
C            0.55761809868164        2.58091468684554       -0.84402455768865
N           -0.47377552016285        3.07198363412439       -0.22814098294843
C           -1.01327289595314        2.42335015060245        0.81570226253347
N           -1.18403380152462        1.16243531175180        0.93154030569859
C           -0.65612569783825        0.14046758424562        0.25529770592146
H           -1.41840445235666        3.05005941762425        1.60266398661175
H            0.95944829545738        3.21672294622309       -1.62687985100382
H            2.31797026020291        1.37682011062797       -0.86732354514792
H            1.89892185759889       -2.94657134786705        0.73224722808883
H           -1.56626252343255       -2.75230063451857       -1.28814623180245
