25
 energy: -42.648206655851 gnorm: 0.000847423362 xtb: 6.6.1 (8d0f1dd)
N           -3.92042087004565       -0.62384245847576       -1.89085831906199
C           -3.07467877194669       -0.18672500265410       -1.24863075746116
C           -2.01728829314942        0.32422969630498       -0.46262358814208
C           -2.13142583121112        1.59103363108028        0.00540105222579
C           -1.20977210622656        2.29719880893164        0.84871927255135
C            0.11692902465262        2.10585447387181        0.92827996072749
C            0.87583983498035        1.11847500738520        0.16988553243429
C            2.09013270536354        1.43217045303679       -0.35693201468097
N            2.86854033041745        0.67986733806096       -1.17376750403378
C            2.89848488369191       -0.60410363264267       -1.15170751395386
N            2.43843602368882       -1.42519334530682       -0.18644931272135
C            1.38885633476502       -1.19651443605590        0.51683819324256
N            1.21261763551536       -1.82083397127993        1.69818149857077
H            0.31612796678460       -1.80964933950555        2.15011464106856
H            1.94219035452921       -2.41649801250326        2.05013160856832
C            0.32178015895705       -0.23103104298860        0.11226447748639
C           -0.94223155632364       -0.62105865901033       -0.14794299263123
N           -1.31513971336231       -1.96276692282564       -0.07179100020667
H           -0.56694823289983       -2.62062069350218       -0.23606674203963
H           -2.15763206511203       -2.19471013617565       -0.57873073930790
H            3.51048035668665       -1.09264541178737       -1.90141172698335
H            2.45421488714464        2.44765312461517       -0.24221600869417
H            0.69746420218109        2.76396903535095        1.56447696876154
H           -1.64551782561746        3.11199733779319        1.41326507679039
H           -3.03729016906486        2.12994489278477       -0.24662219551004
