26
 energy: -47.187606610762 gnorm: 0.000975962070 xtb: 6.6.1 (8d0f1dd)
N            5.24640778181882        0.85387723310351       -0.42857260388785
C            4.10958761020365        0.70903640438459       -0.35390523707449
C            2.71449614763130        0.53786060807627       -0.25989549082506
C            1.89631418292213        1.35637543873777       -1.04269977662373
N            0.62816867596496        1.59078701989693       -0.85260319432194
C           -0.29351298856259        0.96565731569933       -0.17327484602611
N           -1.27760253742816        1.66844879734617        0.34812683658808
C           -2.54566245906241        1.35843874917461        0.46234595437353
C           -3.21548930075944        0.31765854441307       -0.23372910130437
C           -2.64189930368795       -0.87275718919233       -0.62748090335175
C           -1.30748083816709       -1.28837758942733       -0.30456952583457
C           -0.24530042568938       -0.49857969842428        0.00546802625964
C            0.96104992119499       -1.02196222854818        0.60596298153387
C            0.76684384135493       -2.17732098315370        1.39223614205038
N            0.59134309682784       -3.12809411748413        2.01287049131127
C            2.23854150311106       -0.51067590996260        0.55438931377336
H            2.99098290151246       -1.04958385778078        1.12022971925514
H           -1.14775283974084       -2.36045031356103       -0.30613437982746
N           -3.40912387959682       -1.79738599606170       -1.25800244851409
H           -4.39333803138107       -1.63903202088872       -1.37893540666081
H           -3.05811078197833       -2.72681563688168       -1.40176922216353
H           -4.28330538300485        0.42792864182016       -0.36829689249599
N           -3.27991613052637        2.18406311133917        1.23917939775855
H           -4.28138731765314        2.12712035985901        1.25325026181486
H           -2.82454086736579        2.98282806675858        1.64601666384988
H            2.35221932656338        1.94490233145491       -1.83225367525794
