31
 energy: -53.790058873079 gnorm: 0.000832884701 xtb: 6.6.1 (8d0f1dd)
N           -0.06618804442232       -3.98838940797830       -0.46420701856115
C           -0.37125261409201       -2.88372491295467       -0.34919649039945
C           -0.79321666599892       -1.54632404210088       -0.23512409121056
C           -2.17266650101956       -1.29827950291667       -0.49449065614083
N           -2.86506006615755       -2.31274931530792       -1.08669965885110
H           -3.86961852186470       -2.28554963318382       -1.08411119249706
H           -2.42202612194446       -3.21229157312600       -1.17464325773281
C           -2.87720253418950       -0.16291135617124       -0.14128556561985
C           -2.41108849695519        1.04713631589013        0.39229541265892
N           -3.36432383637118        1.89909102766443        0.86540318740894
H           -4.33318511782089        1.70565143633280        0.68692290025033
H           -3.10482309555983        2.83917013374139        1.11211571441969
C           -1.07853837233731        1.49473786354651        0.42453110864871
C           -0.89016070597994        2.82892811520894        0.81442579302521
N           -0.76234392901495        3.92941743807789        1.13572627532555
C            0.11490474439610        0.79601797192708        0.05189177568684
C            1.18892672079879        1.53568137242684       -0.39737429050460
C            2.52850202319822        1.16002670756619       -0.67753826757065
N            3.24017398082934        2.03805795092099       -1.44500327732458
H            2.86480330214893        2.95721295407480       -1.60152968051226
H            4.23931940900573        1.93929409595198       -1.49210757666599
C            3.18149666439171        0.04449553732350       -0.18610179362203
C            2.56812504610897       -0.91191746685218        0.64974733088397
N            1.29954798751201       -1.22518052911134        0.65614559949533
C            0.21761580538054       -0.65532416131610        0.15276791359189
N            3.34987579338265       -1.63893086597783        1.49464478752186
H            4.34205904794836       -1.66438364727767        1.33842679142027
H            2.92369956476018       -2.44432050455374        1.92190679181423
H            4.24734671687751       -0.03798195316950       -0.35051325217395
H            0.97247322462075        2.57595017080671       -0.61390637113213
H           -3.95192770972905       -0.22158518105925       -0.27200238692751
