24
 energy: -43.742319868940 gnorm: 0.000882770760 xtb: 6.6.1 (8d0f1dd)
N           -5.25287782747075       -0.58974627912087        0.01709019106738
C           -4.11126435089794       -0.47155647172646       -0.01717908114928
C           -2.70888517836713       -0.33706828611940       -0.04986318061298
C           -1.99546660874670       -1.11383309490099       -0.96477004621448
N           -0.72258034981468       -1.38662769547176       -0.89524805583689
C            0.25993472017598       -0.85560614194139       -0.22776607857201
N            1.22745828429666       -1.64588860340273        0.20655217272775
C            2.51348213276778       -1.45652894978508        0.22877542660611
C            3.20609658671590       -0.40013029603668       -0.46510392468790
C            2.68623247535383        0.83512912522530       -0.67814743279566
C            1.41206222497015        1.33140702025357       -0.27528174752025
C            1.28431839571014        2.73698870859194       -0.27297910918927
N            1.19329895815457        3.88182340151813       -0.26391427951098
C            0.28612558055507        0.58639758679071        0.06269807666663
C           -0.83966435493051        1.13790217698436        0.72188704410073
C           -2.12504175270563        0.66252016045755        0.76233976565973
H           -2.81952940050045        1.20432876218941        1.39321086950910
H           -0.63827144417753        2.03759876770620        1.29175473200262
H            3.34252859394588        1.57950698105149       -1.11349886715946
H            4.23942871673368       -0.58317090809501       -0.72316954927717
N            3.25237242498910       -2.35922130145889        0.89758353151224
H            2.78692509262675       -3.10767635697497        1.38039270047878
H            4.25454321699829       -2.30948997419595        0.90438351724120
H           -2.53107985158168       -1.62614018723904       -1.75634271864570
