26
 energy: -51.217551276564 gnorm: 0.000355669540 xtb: 6.6.1 (8d0f1dd)
N           -1.79158780748883       -3.45162878906269       -1.69060404292411
C           -0.99645011522131       -2.73374883611255       -1.27784718576846
C           -0.01699390928971       -1.84572956876653       -0.79127985115432
C            1.32553001056104       -2.18179271582915       -0.95378080922578
N            2.37979355074994       -1.71130302691570       -0.33766929552217
C            2.51335732768476       -0.60259322376522        0.37610653589151
N            3.62766475894544       -0.55451210502182        1.13426847048987
H            3.90928109181016        0.30826086931620        1.56850840977180
H            4.28274095762074       -1.31377953753496        1.05923877160291
C            1.69271586123646        0.55851258021240        0.30396270750434
C            2.26115345331785        1.78372236166998        0.69200448911904
N            2.76048182268915        2.75892589105196        1.04089652357314
C            0.36128687581943        0.55839323319848       -0.13620889619840
N           -0.20304636841753        1.66420579469531       -0.55945350625534
C           -1.48320554557515        1.98298301328261       -0.66807209536304
N           -2.48138002600022        1.58056206651600        0.12176384122590
C           -2.38516724335621        0.42735534851673        0.76796754713242
N           -1.64567529737735       -0.62158936247582        0.41002207687596
C           -0.46946574299825       -0.66684827432333       -0.14285457125209
N           -3.23196955885389        0.22714571912933        1.79495123999437
H           -3.35080569994623       -0.70791822267216        2.14387779687970
H           -3.95377531809523        0.90951077437678        1.94599661414230
N           -1.78347795748751        2.93124961386537       -1.57410697857250
H           -2.69872561228687        3.34353966683945       -1.54003369398536
H           -1.03182304688411        3.41349884640956       -2.03457933425375
H            1.54566801094133       -3.03999191069898       -1.58271883662806
