28
 energy: -45.797508848552 gnorm: 0.000517712498 xtb: 6.6.1 (8d0f1dd)
N            4.69307950752963        1.12085081512351        0.06567970881490
C            3.63555342634122        0.69481910345736       -0.08947202356190
C            2.33571814424451        0.19347983526941       -0.27026427182049
C            1.27388171318504        0.93900336447664        0.19282066861193
N            1.47545682588763        2.05906583551748        0.92004256085426
H            0.69635669981050        2.63838517578486        1.17735068743181
H            2.40925257348402        2.34368024295531        1.16607356971781
C           -0.12719453890277        0.60368524051208       -0.10968228658929
C           -0.95746877184236        1.56498326102367       -0.56778450279797
C           -2.36019455824502        1.46392830320224       -0.82987817376530
C           -3.24027522244525        0.62840139153836       -0.22408842754036
N           -4.57364109198346        0.63227750090265       -0.58221490354542
H           -5.23403223461036        0.28586425136205        0.09363983171095
H           -4.89535424001874        1.41138036628131       -1.13304327244725
C           -2.89448947526724       -0.27992846101709        0.85791820562082
C           -1.71941099054632       -0.87990898087241        1.06416629744482
C           -0.52203807085890       -0.76196150735862        0.22872070689851
C            0.18272896039948       -1.87579039295634       -0.11347103134452
N            1.30588215649111       -1.94709687170893       -0.89754627734171
C            2.21819453015971       -1.05822808960531       -0.97925057946514
H            3.05936957094618       -1.32160540153243       -1.61467961141970
N           -0.25345919479113       -3.14028955195837        0.27865078286506
H           -1.25410425117641       -3.26222986987949        0.31339349009101
H            0.22035126334565       -3.87207554177652       -0.23042835454223
H           -1.61295636286013       -1.52402148995201        1.93094839566533
H           -3.70410525483019       -0.48627219886146        1.54975438875778
H           -2.75755480160676        2.18481307167848       -1.53414971086242
H           -0.51757506224615        2.52235111659464       -0.82584677354594
