28
 energy: -45.818936018713 gnorm: 0.000607193165 xtb: 6.6.1 (8d0f1dd)
N           -0.60186063090660       -3.73413036269120       -1.08937050740492
C           -0.83736339255633       -2.65962927641627       -0.74754749597600
C           -1.18531840288303       -1.35096977565531       -0.35962508030820
C           -2.56359866220180       -1.14105617743666       -0.35263271669828
C           -3.28394847636064       -0.02677295089092       -0.00391183564211
C           -2.75859590363820        1.24724861162368        0.26828511160207
C           -1.43002762620303        1.64682431124209        0.16080148592995
C           -0.22261398890806        0.96071552074249       -0.04030827265198
C            0.88887245199849        1.79254765779996       -0.27329170264712
C            2.25992045966163        1.54832384443982       -0.29119766789877
N            2.95662602630015        0.49090581279046        0.13212404817322
C            2.41245915368190       -0.66349885634509        0.47410329995034
N            3.29806472286299       -1.53926893431583        1.01316450621466
H            3.05527820328907       -2.50809086067779        1.11653909674032
H            4.26860694875915       -1.27850000961418        1.00394616169650
C            1.09412833447612       -1.13173970568366        0.29813179914693
C           -0.08999058339657       -0.48362993654779       -0.02449252859154
H            1.00404767573377       -2.20274745004260        0.44066571927436
N            3.07068569461661        2.57292855727353       -0.67630223925755
H            4.05146636407214        2.37243929052732       -0.75726756558573
H            2.69422812707160        3.36962696035142       -1.15607791689015
H            0.63758623145654        2.82580176297903       -0.48841753158799
H           -1.29945365912270        2.71773884265205        0.28513900510582
N           -3.67087018477319        2.22825079181775        0.55224785859104
H           -4.60567586004473        1.95727368047194        0.80243153404184
H           -3.34279671127101        3.11031530373189        0.90510450640035
H           -4.36135985862118       -0.11998607183193        0.02652352523870
H           -3.14704630949982       -2.01579320919351       -0.62124722515739
