26
 energy: -47.167074850054 gnorm: 0.000620164955 xtb: 6.6.1 (8d0f1dd)
N           -3.73214861582229       -2.66941926047755       -1.23973181809755
C           -2.87469875126435       -2.03544571882048       -0.81778648344500
C           -1.81676093406432       -1.24398509731297       -0.30725964000979
C           -2.23275831703882       -0.04531558163144        0.38536669882190
C           -1.49200516419948        1.05401703108917        0.64557230077316
C           -2.10612277160206        2.11099528617503        1.35619531725128
N           -2.57558251818265        2.98522490735692        1.93292378128987
C           -0.12675366344854        1.31604766610585        0.16449948625170
N            0.15172779046477        2.64528718761824       -0.13536344915095
H           -0.43600638181628        3.32174738072136        0.33012203627300
H            1.12945357346048        2.89502009358641       -0.12516571352659
C            0.77783050659956        0.34173621688642       -0.05152929392976
C            2.11302241682827        0.63178129999883       -0.66476371588027
N            3.22671045582884        0.44081716917169       -0.05298116595990
C            3.37122862688054       -0.36477664963841        1.01383801294445
N            2.77514438717947       -1.48399460466881        1.22795889366972
C            1.65906614467597       -1.88523630876474        0.58523947832907
C            0.64181615519129       -1.10933439758854        0.09953223529303
C           -0.55528929132946       -1.74134362645313       -0.39508457998384
H           -0.43856057958751       -2.73237057666939       -0.82069273938780
H            1.51684800868053       -2.96047306053789        0.60789993932905
H            4.20498825332795       -0.11943496471778        1.66090790990082
N            2.10308707018818        1.11236683208779       -1.91975451083456
H            1.24613840445491        1.41621091161992       -2.34603196657478
H            2.97375635261874        1.22677059852956       -2.41027174434095
H           -3.26430314341823       -0.04878588506501        0.71941588558934
