26
 energy: -46.396590095061 gnorm: 0.000648650595 xtb: 6.6.1 (8d0f1dd)
N           -1.55163848463080       -3.36441472086760       -0.54127519119012
C           -1.34125221532067       -2.24941611969186       -0.34689493451475
C           -1.12290449362724       -0.87787033656811       -0.14359462250837
C            0.10887660083372       -0.50130965715196        0.41239446259167
N            0.83220999264223       -1.29504286879100        1.15044938018694
C            2.12727738148594       -1.33227873548558        1.37522630390329
C            3.11233453599253       -0.85070701736225        0.53817636524392
C            2.81548268574956        0.07845541389004       -0.48337033503646
N            1.79767176167684        0.91721737695680       -0.45833937970704
C            0.64164727508667        0.86601795180472        0.14791758169851
N            0.01345918526125        1.96424639876009        0.47863549808944
C           -1.30078664399037        2.12796444186130        0.54585338433959
C           -2.28216954017905        1.34296982455547       -0.07707921394029
C           -2.18204407965425        0.01459575453918       -0.47952321341402
N           -3.23002976282127       -0.51903210774845       -1.16562759569324
H           -4.09102134639680       -0.00444357178420       -1.22420066615147
H           -3.27167499025197       -1.51803687316197       -1.28311720484486
H           -3.24728429500121        1.81269825892655       -0.22398715352909
N           -1.69018138600774        3.25645811465482        1.19566827331449
H           -2.62279694910881        3.60792047121843        1.07404422672676
H           -0.96670211460302        3.89959884923338        1.46670548821851
N            3.67563522946507        0.23122764444256       -1.52496723685597
H            4.58965660801071       -0.18078907547744       -1.46965857513135
H            3.54766706664558        1.02905451751567       -2.12322208709474
H            4.12369517615433       -1.21680659620085        0.63429045389207
H            2.40252544959001       -1.93033039676950        2.23681110030759
