25
 energy: -47.466975258934 gnorm: 0.000689347973 xtb: 6.6.1 (8d0f1dd)
N           -2.07350330439991       -2.18437312697031        1.91457848509766
C           -1.88955755217085       -1.28830330860272        1.22078249197554
C           -1.68882408043320       -0.12762353618207        0.44042266602302
C           -2.74094843412686        0.79988139422719        0.47781209917319
N           -2.96060375925868        1.83874219871041       -0.29319992419099
C           -2.05084857962624        2.26560330927310       -1.15940436080769
N           -0.76501001535086        2.19811712673493       -1.07063745796405
C            0.03703250653940        1.42508674632306       -0.34980796504326
C            1.23137034499463        1.92316608848689        0.13297399884704
C            2.33184056675232        1.15254683721872        0.55266969172940
N            2.64764535798501       -0.07275556846429        0.14523275752676
C            1.88401320130868       -0.97828777699517       -0.42059286005050
N            2.53325309465960       -1.99949726026293       -1.00515246071981
H            2.02919654602168       -2.81230097515777       -1.31876239059217
H            3.53669866664225       -2.02569339038166       -0.94736393895436
C            0.44818154831502       -1.05170993889616       -0.34553503454475
C           -0.11192003267269       -2.32501532345080       -0.56049263565230
N           -0.49591553970443       -3.37540719797785       -0.82760714928439
C           -0.38961076561754        0.03524928545312       -0.11947951994015
N            3.27667918260537        1.73748631682685        1.31426414435834
H            4.11357267138568        1.22511890309926        1.52883783721918
H            3.18391572837420        2.69201098852333        1.60973389803733
H            1.32638287911587        2.99915665894185        0.17502239202727
H           -2.43609849581939        2.84656870814456       -1.99180638196978
H           -3.55734087461917        0.57231522547891        1.15712103859935
