19
 energy: -35.551774207275 gnorm: 0.000773906046 xtb: 6.6.1 (8d0f1dd)
N           -3.14096739280754       -1.03148329171896        1.01634549603433
C           -2.18749238118669       -0.49058906333588        0.24030553797102
N           -2.54315383926913        0.58817153087060       -0.47382455792589
C           -1.62124446991785        1.37958574624798       -0.97319584030958
N           -0.38678717688072        1.54875536974548       -0.57633325136206
C            0.39526207778080        0.72631155389129        0.08072005102519
N            1.34987395734437        1.12758907907751        0.88454890693963
C            2.48252371751728        0.49166588303122        1.06148091440075
N            3.09135476456705       -0.32883794924730        0.23961065729239
C            2.50369429342018       -1.10277948329160       -0.65997171588382
C            1.17114730549316       -1.46606485762864       -0.74522987327591
C            0.13383932567821       -0.72200090709801       -0.15992510795676
N           -1.06031504295734       -1.17975228698981        0.10401873306354
H            0.89639676878694       -2.33435851520246       -1.32888931770293
H            3.21033361984947       -1.61585818243838       -1.30596543719035
H            3.06089861644956        0.80018774080285        1.92624738227603
H           -1.96221492760514        2.07873644715570       -1.72959105962871
H           -2.99291749320188       -1.93848134467135        1.42208131648564
H           -4.06361993016073       -0.63552421329980        0.98042684754768
