25
 energy: -42.655928379046 gnorm: 0.000775861980 xtb: 6.6.1 (8d0f1dd)
N            2.12531075006154        2.71099615757636        1.55750060415647
C            1.95135506671890        1.70290595454945        1.03134430116389
C            1.75266731545023        0.46972100407991        0.38057055792055
C            2.81750999686718       -0.41732680976570        0.45132396431594
N            3.02750243386035       -1.54807405813674       -0.20739005768659
C            2.07791312580109       -2.09809426413917       -0.93714837573727
N            0.78769157531572       -2.01985981024128       -0.80928380772650
C           -0.00961405270042       -1.13461828564005       -0.23589824549378
C           -1.24940939743651       -1.58245937526684        0.21234515485973
C           -2.43767822448793       -0.87063927682973        0.36997334382923
N           -3.49244498958813       -1.54891631663292        0.89697012731733
H           -3.40570636698125       -2.53042809729847        1.08984155209115
H           -4.41438284961228       -1.15227334718758        0.86927293669739
C           -2.69459002961837        0.44504058033289       -0.05619478065365
C           -1.79954066659214        1.41153363258545       -0.47776439691719
N           -2.30152031162412        2.58759577849919       -0.94200138286429
H           -1.68319899087222        3.36880348687336       -1.07247772580012
H           -3.28316761881787        2.78265206749612       -0.85045623287088
C           -0.38438818242618        1.34448632721217       -0.37608096595046
C            0.41409079899991        0.26150618688069       -0.13589702478185
H            0.11612956781965        2.30457953205497       -0.43753927815591
H           -3.73720126103631        0.74153431162391       -0.04107685540771
H           -1.30856280871941       -2.65240250952172        0.37043026876439
H            2.42121489185810       -2.81271830627665       -1.68121347894564
H            3.67208942366034       -0.09810066542731        1.04210648867556
