19
 energy: -35.556361704812 gnorm: 0.000781087181 xtb: 6.6.1 (8d0f1dd)
N           -3.01627826493933       -1.09725985826623       -0.97331613497429
C           -2.07345490586934       -0.53070878429066       -0.20429008649569
N           -0.94669410767807       -1.22354060551393       -0.04815927643797
C            0.17244820225600       -0.65932613266578        0.33676558950644
N            1.14307354387690       -1.22566863342227        0.97767947352590
C            2.43785886152167       -1.01864095142227        0.93651356112884
C            3.12367639677677       -0.44570125533769       -0.13311960340535
C            2.47465031117657        0.37195479520516       -1.05102360489623
N            1.35487939672555        1.02156238617851       -0.82095471436065
C            0.40142610359171        0.80103138972421        0.02023618747537
N           -0.36195160861696        1.70032610593479        0.60476681929240
C           -1.61306979627482        1.46164260887915        0.93368895020544
N           -2.44916716563534        0.57724644234845        0.45169268930081
H           -2.05651857074081        2.19616585374707        1.59903161229938
H            2.95290978481496        0.63247993313887       -1.98794750768284
H            4.17875971759252       -0.64222929408793       -0.25093725752931
H            2.98439136784121       -1.46201456319887        1.76062629804456
H           -2.85402957422958       -2.01764033120678       -1.34242373839592
H           -3.94076093268949       -0.70389599534396       -0.96893930600075
