24
 energy: -48.532763100260 gnorm: 0.000688330868 xtb: 6.6.1 (8d0f1dd)
N           -2.49597096337607       -2.58847032475096       -1.60868105713272
C           -1.56741486146083       -2.20971471308474       -1.05156157241664
C           -0.38658270677848       -1.74462994734680       -0.43374275688331
C            0.62382062924546       -2.64969729212710       -0.17630776059218
N            1.66490292355205       -2.47939923430491        0.62305396603146
C            2.28852039765453       -1.38928552089968        0.93205933452483
C            2.17719254368086       -0.13197152614581        0.29074639673107
C            3.26100270021941        0.76700862141729        0.39761738443142
N            4.14390643665500        1.48988185413974        0.51202428834163
C            1.02304389008098        0.32393193824363       -0.35576414922371
N            1.07444763578833        1.38355830307050       -1.15421547365868
C            0.22786291013835        2.33542324448344       -1.33844881169221
N           -0.73009149946535        2.73025543080891       -0.51039132790062
C           -1.39321550632857        1.90031423734226        0.26043514291837
N           -2.24489529400389        2.43859649347615        1.13930446341482
H           -2.32274326034172        3.44209831792978        1.17007047080523
H           -2.91098639759759        1.86862172776229        1.63524625221953
C           -1.38013834865695        0.44373962962579        0.13673763581764
C           -2.56975906436026       -0.19428348001641        0.54626375104696
N           -3.55052597031167       -0.62719900608102        0.95838585398038
C           -0.27953055036448       -0.32793541250583       -0.18961713413567
H            0.39329784792240        2.96887509581756       -2.20264418087741
H            3.05790711702660       -1.50095221970351        1.68956166273732
H            0.50350306668340       -3.66830907415127       -0.52940251668806
