27
 energy: -46.902928842970 gnorm: 0.000978200352 xtb: 6.6.1 (8d0f1dd)
N           -3.43075398967987       -1.80092129187653        1.24377282547217
C           -2.80549355610353       -0.91407326986747        0.86634720960402
C           -2.04757495342864        0.19487787616868        0.43083303422570
C           -0.78962747502449       -0.14066452097696       -0.11019112610643
N           -0.66113642995692       -1.39759056923248       -0.50878205046777
C            0.34352531420876       -2.22797170597552       -0.52372378958887
N            0.15077752261842       -3.37484465175364       -1.21575689297402
H           -0.77239198392257       -3.55449703829047       -1.57257693449864
H            0.77650978168015       -4.14964639574639       -1.08848757798799
C            1.56814510045206       -2.05432229496951        0.17367623005160
C            2.13676973909186       -0.82937203556865        0.42636709381232
N            3.32979202002548       -0.78212146669519        1.07196884518998
H            3.84564029840849        0.08074475177208        1.11138590311241
H            3.81793649072376       -1.63787729283135        1.26872705113574
C            1.60975212895845        0.44713398022489       -0.02115584901460
C            2.57848987226419        1.46448039038489       -0.09748388192542
N            3.41251706540908        2.25723259849003       -0.15013892147592
C            0.29046939761632        0.81173376896342       -0.28874277696418
C            0.03619432937298        2.12482925186972       -0.79008118942549
C           -1.07630968831740        2.90305910937597       -0.66427076009420
C           -2.25984944893321        2.64864632653527        0.05327188237325
C           -2.65761344725818        1.45128303736867        0.58337376816821
H           -3.60549804342636        1.43291107583310        1.10890144567494
H           -2.92843517301619        3.48899829671341        0.18035481534371
H           -1.01353464458722        3.88597824110492       -1.11530496086994
H            0.88016817996596        2.57890238960749       -1.29687354284628
H            2.13679738095538       -2.93999976993043        0.42073002297394
