23
 energy: -39.212588163632 gnorm: 0.000319819822 xtb: 6.6.1 (8d0f1dd)
N            1.42257789379976        2.90033324871885        0.96452991832589
C            1.21964352889509        1.83906397208092        0.56999026762153
C            1.01637122284195        0.52832053004562        0.10350323520373
C            2.10431747558021       -0.34790351934967        0.12671742633790
C            2.11453913516492       -1.64934848314479       -0.46041113022282
C            1.02022289756630       -2.37948644464027       -0.81707289261882
N           -0.23358888865329       -2.20251999133754       -0.40150572439139
C           -0.82600517050813       -1.11314940767242       -0.05069990922975
C           -2.00749952336582       -1.14302790913763        0.75449490968667
C           -3.04768462126905       -0.25909786872282        0.74291536276290
C           -3.27589486230203        0.79639919284572       -0.16557770127934
C           -2.33648214565795        1.29862576405228       -1.02979427455155
N           -1.02364334529048        1.16123857113306       -0.90777251639801
C           -0.31949479871508        0.24010477707927       -0.34881253210562
H           -2.62794939507456        2.00398529934590       -1.79891333748834
H           -4.26717320846467        1.22604337988880       -0.18528948917316
H           -3.85153375420287       -0.45861877553904        1.44111557347901
H           -2.04377534252048       -1.96738629265995        1.45512691372091
H            1.16169675123981       -3.30263372270384       -1.36744901911047
H            3.09186193064213       -2.07853033262611       -0.63686275953393
N            3.27783227982290        0.09263178303122        0.64172715705629
H            4.11277371056969       -0.45248498270815        0.52219578967355
H            3.36718671090196        1.05382872321709        0.92691194273878
