22
 energy: -35.477624258703 gnorm: 0.000332164355 xtb: 6.6.1 (8d0f1dd)
N            4.76735178106736       -0.35460835991908        0.83144776832131
C            3.66665719853163       -0.20997797931584        0.53925118129716
C            2.31227011935170       -0.04227624956974        0.17677607533548
C            1.70007544564975        1.13615962114433        0.49102176903933
C            0.38656071671172        1.53165790246144        0.13869909625191
C           -0.69363476225680        0.75666558147971       -0.15733737941107
C           -1.92306247059247        1.40702014315714       -0.59864726997776
C           -3.18231861791045        1.03938826028563       -0.29707611797695
N           -3.60008416212288        0.10587976859959        0.60035766448611
C           -2.96091659907526       -0.96845297805194        0.87113851173166
C           -1.74995477101966       -1.45505956937467        0.27845868801057
C           -0.71334037696888       -0.70005800412782       -0.16832282096255
C            0.43295283525936       -1.37929233709570       -0.77012383795455
C            1.73416181694277       -1.10794653232062       -0.60690465514082
H            2.45498773802756       -1.76508808193173       -1.07874844851442
H            0.16708178250627       -2.22840950574533       -1.38892857647784
H           -1.62251614389808       -2.53084136983032        0.27562897662001
H           -3.44203327941942       -1.61894518672186        1.59672670438298
H           -4.00854766141868        1.61085014596917       -0.70581117978074
H           -1.78164320688197        2.28608259552099       -1.21579557931349
H            0.20757266344640        2.59985160054010        0.17229849459485
H            2.30161568386960        1.88620998354571        0.99073398283828
