30
 energy: -50.043778933374 gnorm: 0.000559036618 xtb: 6.6.1 (8d0f1dd)
N           -3.70413262338402       -2.26060632425014        1.74921474215035
C           -3.05103653746953       -1.56694423065358        1.10383120294073
C           -2.26876492787700       -0.70234570852416        0.31837871702289
C           -2.88987504879305        0.36878473598978       -0.27882475773471
N           -4.23530788883184        0.55484744286433       -0.14232394642056
H           -4.73017437046496        0.00881998451313        0.54282775499786
H           -4.64445206481764        1.42471505664130       -0.43268138771050
C           -2.22609318444909        1.27085517585752       -1.19983988276683
C           -0.93282358176898        1.61359176471307       -1.19918041086434
C            0.09815157906022        1.13911982337835       -0.27650531001249
C            0.94900751943758        2.02015209273288        0.31698430518053
N            0.77493702076225        3.38598456591251        0.12360798184663
H           -0.15760292150723        3.68978752303063       -0.10514607858447
H            1.24382238579240        3.97823008557669        0.79000241262322
C            2.05910296987587        1.66265307441290        1.16731040315837
C            2.79263089397960        0.53731967298881        1.11807535829424
C            2.63240219910621       -0.56137958705122        0.20232802735844
C            3.78043987167532       -1.34158501397132       -0.02876972418323
N            4.70534667505570       -1.99488523272992       -0.23118889934890
C            1.46890383747610       -0.93645274549878       -0.42358530856955
N            1.45860073547032       -1.93125677936240       -1.34433051401536
H            2.30927256495274       -2.42751513866652       -1.55300760164233
H            0.58510694124053       -2.29295428655224       -1.68216490754277
C            0.16386271575498       -0.31691152980701       -0.13654895631414
C           -0.89439957137553       -1.10830891743513        0.11563782779620
H           -0.72236557263381       -2.17097354723340        0.24672369722758
H            3.65210333538502        0.45953423231676        1.77207450662371
H            2.37002796687191        2.43222155142690        1.86361706928903
H           -0.59284271869226        2.31830347645441       -1.95169433921341
H           -2.88391255063055        1.72642123362701       -1.93058167469031
