26
 energy: -47.185686380966 gnorm: 0.000575446045 xtb: 6.6.1 (8d0f1dd)
N           -5.01022762281002       -0.61298221078045       -0.20943254244742
C           -3.87756367907957       -0.41575424128267       -0.25761295775306
C           -2.50046507978962       -0.14773869590435       -0.29681094397176
C           -2.03214269786943        1.02658642436641        0.34900087154852
C           -0.74620365216886        1.57440297596906        0.20275325782869
C            0.43346449910574        0.97694537663072       -0.21190790634988
N            1.47007778072602        1.75778410488947       -0.50882564850425
C            2.74494131126303        1.56036249177770       -0.33272483317967
C            3.33358062296310        0.56440507045484        0.51760373897748
C            2.77180078589283       -0.64523368451803        0.78080818069495
C            1.56085774805018       -1.17963002096660        0.27156320177573
C            1.38110365332186       -2.56807071125464        0.44715882172569
N            1.26080528171857       -3.69769841408500        0.61365412688219
C            0.50839077984707       -0.48170046458264       -0.32955387770018
N           -0.41794997632814       -1.14649477624361       -1.00707656825770
C           -1.69355854193785       -0.97679246292266       -1.09722233997832
H           -2.18864384437494       -1.62126982067914       -1.81651360097789
H            3.35533558951398       -1.34085392099160        1.37265266675361
H            4.32463762872333        0.77236761453508        0.89510931640294
N            3.57286057978716        2.45067618975493       -0.91904977312324
H            4.56801646142417        2.37109725372277       -0.82483454758330
H            3.18330597254931        3.14145226864420       -1.53556421985138
H           -0.63993665864648        2.60864702818300        0.50727439713894
N           -2.93561253061392        1.75359743333267        1.04459794309517
H           -3.89747015494351        1.45992252765217        1.07851600441222
H           -2.69001679732318        2.65932216300436        1.40204639154707
