28
 energy: -45.820341033136 gnorm: 0.000479631652 xtb: 6.6.1 (8d0f1dd)
N            4.81783893248678        0.41652871771940        0.07091416069408
C            3.67159839935937        0.27982782156896        0.03844888442948
C            2.28216038393307        0.11874314960430        0.00114190690351
C            1.80005827705495       -1.16005271935979       -0.40398108084607
N            2.74317268215339       -2.02795542587032       -0.87913694345845
H            2.50156618839162       -2.99780997092588       -0.98260486647872
H            3.71692722893955       -1.80256752751842       -0.76122840868673
C            0.50321935851751       -1.63208118542070       -0.31106153921170
C           -0.70379997254475       -1.00067911714041        0.04015370914174
C           -1.74454459257242       -1.81917940833130        0.49154512118418
C           -3.06318174543176       -1.51562804174602        0.82843804446469
C           -3.79711588914718       -0.39956939106313        0.51434654428113
C           -3.28016310369014        0.64583036618473       -0.29476050223761
N           -2.03089720280268        0.98838285959122       -0.42006841357527
C           -0.87974182739145        0.44441875750806       -0.02378664299784
C            0.12035067274572        1.37035865511438        0.24297131667512
C            1.50588936667263        1.24130634725933        0.35960662026303
N            2.18005424821471        2.33939762464306        0.79724122749061
H            3.18411845261858        2.36348260045818        0.74248088224849
H            1.68611279030832        3.20513511217463        0.91758408028885
H           -0.25208911882967        2.38380068327504        0.34188865619920
N           -4.16982556489336        1.46206173427989       -0.93226581930030
H           -3.79202350269919        2.10326533906542       -1.60879095991980
H           -5.11700359651103        1.15220640316381       -1.05642388688721
H           -4.84685151747973       -0.36701044887150        0.76776715160251
H           -3.59871987435740       -2.30780294330755        1.33972774261913
H           -1.45412798458873       -2.84561440515218        0.68451006712167
H            0.40761115354548       -2.69659347410247       -0.50264358690518
