29
 energy: -50.326613220059 gnorm: 0.000480887914 xtb: 6.6.1 (8d0f1dd)
N           -3.13255726428939       -2.94429520821152        0.84164498223647
C           -2.34113123325709       -2.16581302360125        0.53867279927689
C           -1.36236099447778       -1.22357467854496        0.17322257268074
C           -0.04545692557961       -1.60977686346578        0.27874660575793
N            0.28598632416534       -2.81264299891197        0.79413330762487
H           -0.42443520124587       -3.43612085818829        1.14056583023983
H            1.24990733451133       -3.09198591856457        0.83085787793073
C            1.07206165923272       -0.77228684883688       -0.17874889176370
C            2.05516437818635       -1.31590183664096       -0.94405147959402
C            3.23717652983790       -0.65069560652434       -1.38969138398709
C            3.82428952901888        0.39376844522501       -0.75528220770263
N            3.53362721074966        0.78330105076563        0.51004991931893
C            2.39030133055886        0.80859526425287        1.04360684511830
C            1.09878236385915        0.58021338687692        0.35161655742233
C            0.08171619022530        1.47116150168174        0.38667737976479
N            0.23692609985028        2.69528191591363        1.01672457637376
H           -0.40160083122314        3.42043889816845        0.72723679786334
H            1.18619918636578        3.00803789096589        1.14532316056202
C           -1.21168267266169        1.24208578809947       -0.24180408601796
C           -1.88484633305565        2.38711695530750       -0.69548758079363
N           -2.43485152904985        3.33176935319635       -1.05875976101516
C           -1.86389123222984        0.03311967052970       -0.35283487682381
N           -3.08616022083454       -0.02718808592279       -0.95154393375845
H           -3.64354042112969       -0.85790269691893       -0.84734824567079
H           -3.56083399033214        0.83373492804658       -1.16795144378131
H            2.35558249048463        0.97859287648828        2.11752661027955
H            4.72290117329481        0.84741748177168       -1.15145797804898
H            3.72575514534369       -1.06561255969252       -2.26043725550806
H            1.90221929138165       -2.32064808265697       -1.32068498537770
