23
 energy: -39.996843646944 gnorm: 0.000748003090 xtb: 6.6.1 (8d0f1dd)
N           -0.79254391258429       -3.14803523197355        0.95041040153811
C           -0.91678822975142       -2.04596087654389        0.66032486083741
C           -1.11438147157065       -0.66928519533380        0.38129989854518
C           -2.45582352537971       -0.20718348204784        0.63107661716828
C           -3.03429845773327        0.88574129786002        0.09634681714717
C           -2.41711643956290        1.82498613843655       -0.79438192741747
C           -1.10856112040943        2.10147630616704       -0.91780908086336
C           -0.00550722567743        1.51075440245797       -0.17066562220191
C            1.00354531288509        2.30087831365789        0.28584988757867
C            2.13689498881003        1.84691400126326        1.03281433240082
N            2.78549402308471        0.75089974183002        0.88280041365501
C            2.46758771154984       -0.21462405807437       -0.00259268721550
C            1.22345463748098       -0.61239628235921       -0.37853691657458
C            1.08273641591395       -1.70492546718891       -1.26101719545151
N            0.96627709487523       -2.54628615491596       -2.03283672858052
C           -0.02904756995300        0.06572796119902        0.00216977020376
H            3.32514995687894       -0.77687481622376       -0.35573045624620
H            2.54838377822941        2.52907230005747        1.77094536852648
H            0.89028084480423        3.37214013203131        0.17833209175399
H           -0.80878069048271        2.87179034116427       -1.61829671915118
H           -3.10598260153736        2.40617896820942       -1.39458848613198
H           -4.08404878117954        1.05233660408454        0.29672999733121
H           -3.06138173449053       -0.87383505325771        1.23194321784787
