32
 energy: -52.692241938501 gnorm: 0.000535036439 xtb: 6.6.1 (8d0f1dd)
N           -3.65790206382136       -2.11275020442102        1.39779414353769
C           -2.90213207592604       -1.37343476400651        0.93570661287136
C           -1.99054517631705       -0.47917725829584        0.36361365236108
C           -0.76299262734084       -1.03860083960308       -0.16528449409269
N           -0.80628419025289       -2.40571817703359       -0.50290467892180
H            0.05007285887696       -2.90006109653122       -0.28943237397707
H           -1.61027553196698       -2.87909587800302       -0.11124433245313
C            0.38915565077112       -0.33806717488291       -0.33527970557487
C            1.57407475820697       -0.94600337215461       -0.97119213094786
N            1.34672437301247       -1.49954736211062       -2.21115718112612
H            0.41188000719827       -1.83573873706314       -2.38133055410386
H            2.08937975343028       -2.04767800784815       -2.61491725296606
C            2.81124652918275       -0.91289898820970       -0.42803448099691
C            3.23367468037393       -0.20503979805127        0.75268086311067
N            4.42994156306277       -0.65665931384237        1.29761186518411
H            4.62972166098684       -1.63646327385628        1.17556192456969
H            4.64726172813485       -0.30573607196271        2.21690209183989
C            2.67487847657548        0.94071380800431        1.23009229844674
C            1.56253363883918        1.63056422507979        0.66303087263797
C            0.54729804867476        1.07893467180607       -0.02845153184735
C           -0.50166541116805        1.89053304791187       -0.68310433966007
N           -1.76348069532783        1.80455539647023       -0.44690808227516
C           -2.36145128955677        0.85724135591703        0.30703228859531
N           -3.48213308589808        1.29339927774926        0.95778232505785
H           -3.84103556531378        2.18843323474763        0.67295161235754
H           -4.14498113858956        0.60467573875417        1.27394403299178
N           -0.07671201087784        2.77885182912551       -1.60263606369636
H            0.90544997418390        2.87956855085321       -1.78228981190326
H           -0.74670397662404        3.28126287643030       -2.15861038195935
H            1.51952136549285        2.69689406223982        0.85539054654079
H            3.17680017821407        1.43680039621389        2.05150081073356
H            3.59575399356328       -1.46995404332578       -0.92841072153307
