27
 energy: -46.104792300266 gnorm: 0.000913693239 xtb: 6.6.1 (8d0f1dd)
N           -0.63543198550200       -3.61240208271797       -1.39701854553625
C           -0.87783419749924       -2.56642523634649       -0.98265117414866
C           -1.19789952245731       -1.28857944968057       -0.48589631138656
C           -0.07296073470280       -0.46979296269925       -0.07959624105932
C            1.07368377965594       -1.14168754409224        0.25884508055164
C            2.38078706005211       -0.65095776407673        0.54457826279778
N            2.93507928677462        0.47969320441642        0.18394582925960
C            2.28331318586022        1.50934205466209       -0.38333440696962
N            3.13998257870301        2.42248427993706       -0.91816370439526
H            4.11925532579117        2.29677367332687       -0.73427742056919
H            2.81081936627558        3.32953902876568       -1.19375215175944
C            0.92687408519310        1.78974871494070       -0.40241836648369
C           -0.19174983074241        0.98111373505624       -0.10093815698519
C           -1.38637445151768        1.65196058061497        0.13881218109724
C           -2.68632836268313        1.16900827163215        0.37290509634777
N           -3.22967252375507        0.00713703314499        0.02594245353330
C           -2.55269899115954       -1.00981997586793       -0.46679685604210
H           -3.20142317654384       -1.79129529941394       -0.85675883929136
N           -3.57207625886879        2.01803006424229        0.95401948347634
H           -4.53076042530593        1.72340066968787        1.00693423993417
H           -3.34044039368997        2.98054538292785        1.11574475477998
H           -1.29133470021314        2.72792772153547        0.24017729039236
H            0.68283465087053        2.80387775586111       -0.69923508034097
N            3.20048824622671       -1.49144418217014        1.22005598769591
H            2.93574828722666       -2.44797690940567        1.37038927002382
H            4.16669636400624       -1.23143259739534        1.31125561992555
H            0.98342257070243       -2.21841166198973        0.34604851995266
