26
 energy: -42.376961564349 gnorm: 0.000888202041 xtb: 6.6.1 (8d0f1dd)
N           -2.15459128254448       -2.97241056260310        1.03253078290531
C           -1.96405531768312       -1.89200122366326        0.68408174066995
C           -1.78710185180801       -0.55095646047501        0.28411954708339
C           -2.98719192730582        0.17593444542165        0.31625482712304
C           -3.22803922396619        1.46510968207226       -0.07829773998445
C           -2.25892576583945        2.38497074138760       -0.50435019816237
C           -0.89989468283414        2.27357316300324       -0.48919460950417
C           -0.01760347255581        1.20135791082475       -0.13658887487431
C            1.29695035728516        1.58534564834667        0.07698192995714
C            2.47323748465730        0.83121244718979        0.30205191493406
N            2.73188631265386       -0.43141038254828        0.02225842452008
C            1.81028002171756       -1.31499554253394       -0.37746414202450
N            2.35740376046404       -2.47074023147550       -0.82693216093501
H            3.35035040259963       -2.58536891342284       -0.72169849029264
H            1.78395551585732       -3.28233709918812       -0.97300214478153
C            0.41763883597263       -1.24323301151082       -0.31757410619835
C           -0.45401659499514       -0.17690554470007       -0.05397015622791
H           -0.06985134148872       -2.19609917903417       -0.48831710143596
N            3.54233977342905        1.50618778810392        0.78201557344137
H            3.49361320782789        2.48437244972193        0.99852528528911
H            4.40413570983781        1.00554928476263        0.90399934783242
H            1.46130761889769        2.65654656112701        0.12184447418243
H           -0.36778315689700        3.16421936824971       -0.80566609199966
H           -2.64491198758245        3.33922593450421       -0.84467839638884
H           -4.25269251438100        1.80916368425308       -0.05917013012851
H           -3.84432755911274       -0.39783532581222        0.65295211720655
