28
 energy: -51.419072596245 gnorm: 0.000951038969 xtb: 6.6.1 (8d0f1dd)
N           -3.91502227558435       -1.85163664266749       -1.16335005128181
C           -3.14758864298491       -1.06497259697402       -0.83031416936388
C           -2.20156894459196       -0.08905930717321       -0.45480651350244
C           -1.05487104708905       -0.58380341458377        0.24145142742550
N           -1.18351630562168       -1.64950538367131        0.96436432715073
C           -0.34383994343318       -2.55453328381077        1.41337685648623
C            0.84436520816402       -2.91418750047986        0.82786461572388
C            1.56925830358186       -2.10083654839546       -0.07159946465014
N            2.64666987425186       -2.65364686947882       -0.67154898612860
H            3.27460078122907       -2.08694317482392       -1.21673902953919
H            2.90089750180509       -3.60387865845568       -0.46982478807094
C            1.34009826526941       -0.71916282170948       -0.27328529025159
C            2.29509423057410       -0.05474244054060       -1.07096383363029
N            3.06842800824870        0.42486439881707       -1.77481130320575
C            0.23314164871402        0.09143132460667        0.11499530822612
C            0.41585431978430        1.46450754339355        0.29108107497307
C            1.72000887368717        1.87551074212777        0.64272957663686
N            2.74360231906687        2.24921858628979        1.00998038552003
C           -0.55361013851302        2.51050325583891        0.19288508660935
C           -1.82261294160991        2.38290171268293       -0.37543672376776
C           -2.49740006621775        1.23316869701184       -0.74556908738125
H           -3.43980341850481        1.38686192248781       -1.25817342685287
H           -2.34161660224060        3.31605523533329       -0.55381409491328
N           -0.16400118605754        3.74377154958099        0.58814154997824
H           -0.75622801843487        4.53602480343200        0.41240312661773
H            0.78510010113853        3.90689958544132        0.88098896273130
H            1.28676335952668       -3.86353102368788        1.09324878349824
H           -0.72824336105838       -3.13439124299267        2.24412263846234
