28
 energy: -55.446109325402 gnorm: 0.000349742683 xtb: 6.6.1 (8d0f1dd)
N           -2.94263080471735       -1.78573872134022        1.97787538622347
C           -1.98269679304206       -1.69709874533135        1.35450420946216
C           -0.75078953889650       -1.60630272198311        0.66932684642004
C           -0.46969094613672       -0.36842903421521        0.02939281506881
C            0.95131152459883       -0.02250908767766       -0.11804420609971
N            1.79821921418002       -0.88757902585028       -0.62309529079748
C            1.76815880582803       -2.19933018938620       -0.68802702673018
N            1.19050352516114       -3.03150452460303        0.19509937883689
C            0.10320647859332       -2.70783066923359        0.84182675360660
H           -0.23164338604826       -3.46709762889892        1.54229952881363
N            2.50661646450137       -2.78523628092398       -1.64620424311998
H            2.66055496471781       -3.77622298004162       -1.58315047540100
H            3.11297122087330       -2.21736319993471       -2.21143583777451
C            1.44746356773516        1.22713531802129        0.29526626077562
C            2.82994493164913        1.32060742964500        0.53398198035214
N            3.95146243605517        1.44544901676072        0.75370214021845
C            0.67411389772842        2.40144905867468        0.50486746806549
N           -0.48095290611877        2.69291907996517       -0.07153322349827
C           -1.36094922115058        1.88958122175466       -0.62598928132131
C           -1.49713611895135        0.48143276150536       -0.37630517712895
C           -2.76892307360324       -0.06079274394701       -0.64353539887117
N           -3.80578869126996       -0.43704472934106       -0.96831757948583
N           -2.28834620176764        2.48875227096452       -1.39208886798533
H           -3.08979974429251        1.97420899547713       -1.71767029959946
H           -2.27555992424148        3.49164112258880       -1.46208191356592
N            1.20459755667956        3.39386361687539        1.24125279492968
H            2.14306071454984        3.31815464170846        1.59551991734486
H            0.71961339748462        4.27304837656608        1.28551651596076
