23
 energy: -34.395855262981 gnorm: 0.000477518616 xtb: 6.6.1 (8d0f1dd)
N           -1.17662779977408       -2.28833711683998       -1.05574133324872
C           -1.25908936354857       -1.12285698423329       -0.33966071188605
C            0.03712329867410       -0.55247592469980        0.08416331108431
C            0.98801595577060       -1.36568868059629        0.58682716721208
C            2.32869729474845       -1.01461810811914        0.96427117132147
C            3.06711796590986       -0.01369327633434        0.45282024989239
C            2.65407604481854        0.90561764306962       -0.57787562547781
C            1.40499286807270        1.28583788181869       -0.87212518640230
C            0.17838334466811        0.87525912584798       -0.18328736727160
C           -0.77328485298498        1.79709866024216        0.09609646512125
N           -1.94108005172143        1.65759051715892        0.77448055621342
C           -2.65840596811972        0.59424462780766        0.77309944937423
C           -2.46024086978451       -0.61729594255321        0.04129174095522
H           -3.34849499045960       -1.19140839713182       -0.19439868820407
H           -3.58580760120817        0.67201408378238        1.33440390064529
H           -0.55695762782572        2.83498827214495       -0.13786067988701
H            1.25788678710273        1.99748117947853       -1.67721950470256
H            3.46471230796462        1.34750694110362       -1.14561480798651
H            4.09583757702660        0.08383629727664        0.77529112482202
H            2.79679897018681       -1.68547801988592        1.67414681747656
H            0.71171951575456       -2.39668572528976        0.77490259637537
H           -0.28258756012594       -2.53815236176173       -1.44319364471981
H           -1.99045975134519       -2.59019330898689       -1.56545041140796
