20
 energy: -36.045855579473 gnorm: 0.000437601623 xtb: 6.6.1 (8d0f1dd)
N           -4.83488322458690        0.04838530522661        0.21022422474386
C           -3.68867773905000        0.01810487647497        0.16418223695843
C           -2.27910101426357       -0.01070229521032        0.10934828531569
C           -1.61880770454980       -1.02109439967051        0.78543264408020
N           -0.37510821135533       -1.40079238435928        0.55534835849604
C            0.64199124867174       -0.74151208980953        0.12569772476134
C            1.74643795415803       -1.38271230558676       -0.53022318560397
C            3.02989738061008       -0.92032895223130       -0.56196243231620
N            3.60458822248606       -0.00092724359574        0.23531374933964
C            2.94640406054745        0.89835928686348        0.89074210025058
N            1.74054564583678        1.37689672891001        0.59565310357279
C            0.73406295082294        0.73381987737937        0.11605483610626
C           -0.33341081496004        1.40406787869762       -0.57137150671380
C           -1.63817112729683        1.03225017395158       -0.62666737575439
H           -2.30451887441170        1.66088407099157       -1.20502904094328
H           -0.02614809283949        2.28648675483635       -1.11717059741124
H            3.48860366645044        1.44762491808084        1.65248306124821
H            3.74638820062485       -1.43691394677631       -1.19089158089776
H            1.49915725089711       -2.27881743440700       -1.08392103625143
H           -2.17458481989213       -1.67511864826566        1.44721621391898
