22
 energy: -38.715203006744 gnorm: 0.000945408973 xtb: 6.6.1 (8d0f1dd)
N           -3.50604467609285       -0.75248977400306       -1.16398290670032
C           -2.50173285234339       -0.25579824916153       -0.39335207697224
C           -2.74230620208663        0.97158955424633        0.25585162236898
C           -1.85536458737680        1.69097816364623        1.03366390509098
N           -0.54245794150759        1.64908546233205        1.03196447378850
C            0.19640128566106        0.71704870574369        0.47906381818378
N            1.34471286971906        1.01169550667927       -0.08056307125900
C            2.38737853084542        0.23255309104564       -0.31374557249916
N            2.79567618152775       -0.82238591812016        0.40365486953913
C            1.92319391211852       -1.50568962566277        1.11734977815774
N            0.62838176658860       -1.57654461093453        0.98315081809889
C           -0.20300359871113       -0.71276605736609        0.42315237752996
C           -1.38115594920181       -1.07943903041486       -0.19982512397540
H           -1.45547211379302       -2.10450183959748       -0.54074127125731
H            2.35282738665704       -2.21377019073773        1.81978711889096
N            3.21778179195652        0.62564162775957       -1.30509726702551
H            3.08202891896723        1.53772087679807       -1.70476268479165
H            4.12826674965218        0.20160985746453       -1.33863172376828
H           -2.25940123632789        2.48990078728531        1.64756108600402
H           -3.75259076461913        1.35437826839448        0.18503637099849
H           -3.46041708082762       -1.70166096651027       -1.48981076727408
H           -4.39819817100596       -0.29112348588628       -1.17757880972834
