25
 energy: -43.452967791120 gnorm: 0.000584685168 xtb: 6.6.1 (8d0f1dd)
N           -4.57397735389593       -1.35937997695060       -0.29453242226310
C           -3.52198877084241       -0.93950107220928       -0.09267312867805
C           -2.24333749971527       -0.40613697505248        0.12644740288130
C           -1.33024235484288       -1.14373506100433        0.92238206136416
N           -0.05730099800247       -1.02380163663935        0.94251323344314
C            0.78430504937505       -0.17897470706534        0.33027321588392
C            1.94660873681032       -0.72202281916515       -0.21480456464945
C            1.93530271680354       -2.12195606812501       -0.41310028062453
N            1.94334944960516       -3.25336392861960       -0.60648061345207
C            3.14072293133865       -0.06269149561169       -0.59541676141150
C            3.53323932286212        1.20300182342844       -0.28169400118635
C            2.78671244933197        2.18588259126912        0.41345100353149
C            1.45600496662084        2.21504238920134        0.67440592740647
C            0.45720796225000        1.23484301035642        0.34636937893781
C           -0.82205691067628        1.66360900517364        0.07287833843466
C           -1.99306819055158        0.92751926635653       -0.25021527306461
N           -2.99156947371861        1.61468558434555       -0.84620176001005
H           -2.89929574233330        2.59749820535780       -1.03102296810037
H           -3.87161402513768        1.16303115824196       -1.03160317946896
H           -0.94286960436671        2.73886595510522       -0.00193645249916
H            1.06471574045470        3.11417696568529        1.13598692364231
H            3.35145198549582        3.06123334932189        0.71080025672264
H            4.53537133339086        1.49242708067369       -0.56739325603825
H            3.85537801545600       -0.69172965178438       -1.11270894984876
H           -1.73385263531230       -1.91953099108940        1.56541423844655
