18
 energy: -31.805100536793 gnorm: 0.000379591177 xtb: 6.6.1 (8d0f1dd)
C            2.32342468542341        0.90813182457457        0.59564165384798
N            2.92168728008834       -0.02023998810424       -0.16933001217651
C            2.28235711604182       -0.91834049227387       -0.84904961880950
N            1.06585125788895       -1.39055448020436       -0.60498930246382
C            0.04168731588334       -0.73902955079853       -0.16758075187876
C           -1.04595216132575       -1.38354436860970        0.50657870861641
C           -2.32345360490273       -0.90799504277015        0.59556494863383
N           -2.92162008360878        0.02019549806107       -0.16970181992085
C           -2.28220456847775        0.91813508651886       -0.84955373520285
N           -1.06572941958708        1.39040701497529       -0.60545238894777
C           -0.04162042416886        0.73898563566254       -0.16776101196566
C            1.04593444946986        1.38366009987725        0.50638227315600
H            0.78613165296186        2.29063557123550        1.03625686142768
H           -2.85260448957572        1.46803714679816       -1.59054733237641
H           -3.01797782710529       -1.42480627090775        1.24930753269412
H           -0.78621588463885       -2.29039434291551        1.03670065453586
H            2.85284995931494       -1.46841774945467       -1.58984164634787
H            3.01786672071823        1.42509763223551        1.24934940297824
