23
 energy: -39.218362611308 gnorm: 0.000709757717 xtb: 6.6.1 (8d0f1dd)
N           -4.53240767152536       -0.23673411802780        0.90239056541510
C           -3.41154073719374       -0.27588421260240        0.64049960952146
C           -2.05051218152464       -0.26876753721562        0.30726783737869
C           -1.29866824941558       -1.42233628261787        0.50262969682748
C            0.00831522246870       -1.67823866860223        0.12243907655850
C            0.98012714648880       -0.75706296999263       -0.27671270877752
N            2.06579721437632       -1.18480390865912       -0.90189392273703
C            3.30491903038715       -0.81513943322836       -0.84199702758532
C            3.87520749622624        0.04164734085064        0.10740638406487
C            3.16084181509897        1.02834056839347        0.76497378405016
C            1.82993921293145        1.38925619613437        0.58877763970486
C            0.79994169897784        0.67248183514139       -0.02837087275956
N           -0.31305398923849        1.31029611240435       -0.36053896902812
C           -1.55291853429740        0.90398556168172       -0.37016414686285
N           -2.44431892313499        1.69508023670458       -0.99704576075573
H           -2.12274622587172        2.55088834802625       -1.41427550914140
H           -3.43041488459019        1.52061463930427       -0.90479854878558
H            1.51564177072750        2.32930060582385        1.02375926935229
H            3.73756563610158        1.68593482867776        1.40466326811662
H            4.94561725931207        0.00193629467510        0.24561358327302
H            3.95211790942590       -1.29335691556118       -1.57070284295278
H            0.34161567723879       -2.70645181541465        0.16551343904215
H           -1.84621091696832       -2.26124226998843        0.91709670567480
