25
 energy: -48.250286681049 gnorm: 0.000482584801 xtb: 6.6.1 (8d0f1dd)
N           -4.98347761098497       -1.60581140684716       -0.57434445399992
C           -3.91638702904852       -1.25952495477570       -0.33381192485121
C           -2.59151997366002       -0.87467561031936       -0.04774274898282
C           -1.90794101630209       -1.55514026877354        1.01316756843866
N           -0.64722078108566       -1.64798554021297        1.15507966027151
C            0.38038339119958       -1.14281061857056        0.44774967664600
C            1.41908743624809       -1.95408061735137        0.08170681787064
C            2.67466894518187       -1.49976991475071       -0.41574159203138
N            3.28840514626997       -0.38446731423909       -0.06366773185743
C            2.77724551631739        0.66996417755497        0.52907930199276
C            1.45514757926120        1.09910475440676        0.56082303412412
C            1.20998672969125        2.40694992843263        1.03253214647003
N            1.02748214513016        3.44419953359131        1.48796864010379
C            0.33189579368130        0.29748182911126        0.19432630508283
C           -0.80999248287204        0.85147136503792       -0.39040371388662
C           -0.67465212993006        2.14792521601509       -0.95011827393466
N           -0.59805518181525        3.16421339399489       -1.47461340613485
C           -2.05842290986065        0.24315792561398       -0.65254742479843
H           -2.70671087685662        0.79219293018990       -1.32670195832348
H            3.52679781319583        1.34893544806576        0.92395783465481
N            3.39660834367317       -2.32972056945366       -1.18666802302924
H            4.31874387649692       -2.04400620134757       -1.46871007619573
H            3.05580162749867       -3.24027408337493       -1.43714967160533
H            1.26236454327517       -3.02145625075852        0.15861214397009
H           -2.50994188000424       -2.03283135594053        1.77959213900559
