24
 energy: -42.953065329775 gnorm: 0.000809216245 xtb: 6.6.1 (8d0f1dd)
N           -1.14198021246970       -3.20619351214897       -0.45465123503412
C           -1.08134109291842       -2.07763136089301       -0.23578379192015
C           -1.07234349030636       -0.69502086475400        0.01058298504135
C           -2.31361009159670        0.00667969471413       -0.19730930854354
N           -2.68699936496485        1.13584031242708        0.36617684902609
C           -1.87313232326624        1.91016268026264        1.07816546469736
N           -0.60669302524306        2.10569823445408        0.95811552998513
C            0.28850408527560        1.35438973225337        0.29197879327701
C            1.32622901933731        1.95417398206532       -0.38738777121196
C            2.47872391960329        1.34360244258521       -0.91624283346652
C            3.01982109848913        0.13495665474425       -0.58920730976791
C            2.45103183743048       -0.76704013763242        0.36842711579380
N            1.17987520532944       -0.89621783846655        0.62283424217801
C            0.16004744477317       -0.10663289202274        0.31730944524009
N            3.27812054344939       -1.61800363127101        1.01256164050036
H            4.23922031435617       -1.70362257633802        0.73667461345102
H            2.86924020496115       -2.32589312422613        1.59804842995621
H            3.98026843389003       -0.13835478271211       -1.00347663958594
H            3.05727952119775        1.96178433995222       -1.59236906770536
H            1.21510182766625        3.01661363412240       -0.55864675631184
H           -2.38336824566862        2.56020810080740        1.78377405843461
N           -3.24575455966985       -0.59891603514957       -0.96004145981597
H           -4.16015665788047       -0.18263023780034       -1.00004841155438
H           -3.11662744017543       -1.55099803317380       -1.25899025986367
