26
 energy: -47.175380087082 gnorm: 0.000731743179 xtb: 6.6.1 (8d0f1dd)
N           -2.45362241297984       -3.33696786797210        1.37386262706108
C           -1.92955633502143       -2.40379294954674        0.95214379670712
C           -1.30052345926130       -1.26422996965493        0.41874547881562
C            0.08221008311223       -1.44316572518699        0.02777397661156
C            1.02287195785070       -0.49810132623199       -0.09894606650045
C            2.38352298996506       -0.84583374399177       -0.61004554716930
N            3.47331022688951       -0.60603908201389        0.02751453760307
C            3.59567905735942        0.26468298313612        1.04202217416953
N            3.00338601037617        1.39964385969842        1.17442104443283
C            1.89336855189328        1.75855851496878        0.49923640781128
C            0.88648698917621        0.95398836074104        0.03403395219308
C           -0.31678416612176        1.57357316035480       -0.45687186876743
C           -1.58259737192529        1.08796285263342       -0.41804280134807
C           -2.59112515222562        1.91265913539366       -0.96968389827664
N           -3.41758960958671        2.57040272353790       -1.42013514217583
C           -2.06773605321664       -0.14151996930126        0.21953047014970
N           -3.36967691723237       -0.12207429791587        0.60030614846292
H           -3.78517255869033       -0.95699851796473        0.97782207999021
H           -3.96618479635000        0.64505697295323        0.34319203078430
H           -0.19587394166068        2.57072985009823       -0.86952405890133
H            1.73221704386402        2.83188592758224        0.48924946451756
H            4.40874508835767        0.05304637496777        1.72702214564360
N            2.43098498095305       -1.45136572664215       -1.80831233194849
H            3.32739987210646       -1.67780082319233       -2.20507711811330
H            1.59485184839351       -1.80500074740216       -2.23827677556684
H            0.37289574307435       -2.47664056844994       -0.12487149898551
