29
 energy: -51.137078141906 gnorm: 0.000909927704 xtb: 6.6.1 (8d0f1dd)
N           -4.87662468688174       -0.29018975131958        0.97791630483811
C           -3.77394627799657       -0.14495103488400        0.68453871868899
C           -2.42086975439346        0.00318285610023        0.32795498757067
C           -1.87966264187496        1.26516453783829        0.43128278538491
C           -0.60649605335908        1.72771741023693        0.08244595149953
C           -0.51173880667329        3.13792572023293        0.14345544393131
N           -0.48293540337844        4.28454388677178        0.21412270782868
C            0.59055737229013        1.02439826855799       -0.20228158261490
C            1.66657000446288        1.80978109273232       -0.67317859887762
C            3.02685005955535        1.59520223232181       -0.66394804577444
C            3.75025684851599        0.56528077288023       -0.08677591860709
C            3.22643812504909       -0.61974140113856        0.43090248169475
N            4.08584346227919       -1.48977472599396        1.01178697419810
H            5.07075806817621       -1.29453228746862        1.02476637660593
H            3.77699562077132       -2.40507410354867        1.28776314063700
C            1.88504019171670       -1.04685723154047        0.32112636337308
C            0.71667127291993       -0.40454854380170       -0.04485501060066
C           -0.38451756277325       -1.30354702685645       -0.34375932048084
C            0.02808373256566       -2.55558394194801       -0.83806491450364
N            0.32749384778597       -3.58675907736177       -1.25542464629179
C           -1.76180874305972       -1.16183432849557       -0.19847558550387
N           -2.56615039628028       -2.19290989872441       -0.53553391043095
H           -3.55712835734941       -2.13046351321071       -0.37348586928178
H           -2.17323621060781       -3.05450950525576       -0.87568494547793
H            1.76006048892232       -2.09644381230072        0.56659500768614
H            4.82583027305646        0.67476944051649       -0.05197455175598
H            3.61909018727466        2.38896927838535       -1.10208544193280
H            1.36434609415756        2.76860889494973       -1.07738694284296
H           -2.56182570916521        2.03519756222937        0.77821735754591
