28
 energy: -51.411172853277 gnorm: 0.000800422630 xtb: 6.6.1 (8d0f1dd)
N            2.84803806714535        3.27508001170109        2.05693003747790
C            2.50342376299260        2.36090618327676        1.45643125294810
C            2.05494599983787        1.24667315810650        0.70742732469878
C            2.94853580689595        0.28117269570996        0.39849063393082
C            2.68722545712068       -0.91021304884794       -0.38014826896975
C            3.83834088546083       -1.53659280792717       -0.91657564702566
N            4.77293172107592       -2.03562340874833       -1.35605598480199
C            1.49392198610334       -1.53365395474604       -0.55742618990511
C            0.19816643020919       -1.11716595745578       -0.07572839638514
C           -0.70041350980629       -2.07283656905826        0.29089257881536
N           -1.89040219811967       -1.92766917750926        0.90003221442076
C           -2.71423400830733       -0.94606796101860        0.75196409062299
N           -3.80479659813012       -0.90968197483255        1.55172468204859
H           -4.58504829397747       -0.32083629812112        1.31533899323050
H           -3.95921527357787       -1.69705846227882        2.15827008261303
C           -2.61939686480565        0.09763639365155       -0.27263904056862
C           -3.83153984768406        0.57108543697906       -0.80007506577449
N           -4.83637668304933        0.94754621895438       -1.21509168238069
C           -1.43800575263235        0.64353557087646       -0.70710574963043
N           -1.42096528369358        1.56810257419041       -1.69065744585587
H           -2.27492247174496        1.82860770259123       -2.15571600506614
H           -0.55571123577535        1.98368672185787       -1.98617946747993
C           -0.12499273288297        0.31694807235444       -0.10924930466355
C            0.68102408849071        1.33350855907015        0.23691608593247
H            0.29105682663763        2.34400455429381        0.18941730493813
H           -0.38579729887187       -3.11005143897530        0.24265354723864
H            1.51159371287358       -2.48574560692066       -1.07837275656949
H            3.97250959451296        0.40130349272893        0.73164619616331
