24
 energy: -48.541730697474 gnorm: 0.000681161972 xtb: 6.6.1 (8d0f1dd)
N           -5.11947062511918       -1.31386271486625       -0.16905909071702
C           -4.00238508096002       -1.07758973831897       -0.06083582841229
C           -2.62216583497194       -0.80842310187469        0.06489088660424
C           -1.88086786704327       -1.56173154387745        1.00489192238710
N           -0.60533536194828       -1.73788583388927        0.97382894908227
C            0.36229312845136       -1.17628936620743        0.28947778272095
N            1.34178748867014       -1.89881978709064       -0.18845931461640
C            2.58748543232220       -1.51458414572163       -0.38500095134931
N            3.25646434061010       -0.58656044841846        0.33093010529810
C            2.71825242682522        0.49582736217081        0.80660295509036
C            1.42936756991400        1.02909766951262        0.56721956525846
C            1.23834694880303        2.38623209983048        0.91267291171569
N            1.09933458674358        3.47325568249680        1.25057408141288
C            0.32534350473987        0.28828627850194        0.11623404719840
C           -0.81967088664568        0.84124223308768       -0.49767991212358
C           -0.63325421758934        2.07893556905125       -1.16449934299215
N           -0.49386281174229        3.05053871394614       -1.75635168505284
C           -2.08931786267976        0.27158390462293       -0.63582812009752
H           -2.78068760709391        0.82326921433278       -1.26342522030048
H            3.40596394484667        1.12188840413453        1.36722342956933
N            3.32547607928557       -2.21047453372463       -1.25469405352872
H            2.91894867869305       -2.99051324312539       -1.74086459215442
H            4.31391557082012       -2.03437192770765       -1.30385364415016
H           -2.40950838343133       -2.08360925836606        1.79485730915716
