28
 energy: -56.231728802465 gnorm: 0.000796862615 xtb: 6.6.1 (8d0f1dd)
N            0.26622722543965        4.04574358344267        1.13057614769590
C           -0.15828956182484        3.01141252154992        0.87534602792054
C           -0.67016581757125        1.72909501829255        0.57430178749035
C           -2.04844161811719        1.54981906085483        0.63633150854631
C           -2.82152793319635        0.49402094817396        0.17369390726264
C           -4.21664594096549        0.72260797547372        0.19560249186936
N           -5.35191984501219        0.89522353958165        0.20729885470437
C           -2.41636211924238       -0.78041271990519       -0.33187422241667
N           -3.36575408576349       -1.54711760110154       -0.90126280799586
H           -3.15051174200536       -2.49222536436863       -1.17508636766576
H           -4.32552631802803       -1.24189624951861       -0.90987555619684
C           -1.12931245880460       -1.33402011776650       -0.17974302040883
C           -0.97838505893883       -2.70631417545690       -0.47312825257423
N           -0.87193286128608       -3.81644963986251       -0.74635071036166
C            0.02314513915315       -0.68878451834369        0.31173165293901
N            0.94454488279923       -1.36608421738826        0.93582388980570
C            2.21684854308258       -1.18199545701852        1.16723552443091
C            3.08475870893536       -0.43276829872287        0.37796283285852
C            4.47485827636486       -0.60870114006107        0.46343922407291
N            5.61698562192687       -0.72485660308959        0.50376867745911
C            2.56727340292621        0.53718248101357       -0.54192923184951
N            1.39853418722708        1.11642217496547       -0.37996980880383
C            0.26881710430400        0.76064876786116        0.16177489493014
N            3.33969967108948        0.99196358131674       -1.54290458070207
H            3.02311231271860        1.78064688656145       -2.08102463746448
H            4.30769432967983        0.72108440855345       -1.58891960608986
H            2.61663519749000       -1.77967523517660        1.97818130932503
H           -2.60909811037554        2.40526145385244        0.99757805587962
