23
 energy: -39.207276971180 gnorm: 0.000647171110 xtb: 6.6.1 (8d0f1dd)
N           -1.92320305614789       -2.93109762512873       -0.31900568639215
C           -1.49568775436465       -1.86645233933473       -0.23026324637267
C           -1.05468220911306       -0.53620186685165       -0.10700771743990
C           -2.10735958960462        0.41401641694032        0.26568958202618
N           -2.18071727053306        1.65759496720210       -0.08435712831446
C           -1.19919931144275        2.36801218368057       -0.66842582060626
C            0.14272524333428        2.19466049684710       -0.60413084605786
C            0.87609201316696        1.06047485898339       -0.09410794303463
C            2.12991690601979        1.28777252877530        0.42032861322841
C            3.04989994301253        0.33270122676701        0.91888586679818
N            3.22713807905946       -0.88748316290192        0.54209868013137
C            2.46586252827805       -1.52054835600722       -0.37219552033683
C            1.15688676486668       -1.33697671882137       -0.66848687399341
C            0.28886320315741       -0.26473554864607       -0.23115315891484
H            0.67958187856248       -2.08404378099409       -1.29199272952498
H            2.97608678952934       -2.36691228747384       -0.82041172965230
H            3.76328676787887        0.68276090876453        1.66070322714723
H            2.40849859848929        2.32576820452383        0.55778939141801
H            0.76241670012880        3.00359812820105       -0.96975876540177
H           -1.57606177157563        3.27087740382940       -1.13766196670186
N           -3.13235996754268       -0.08162810351054        0.98833730752940
H           -3.23188159818280       -1.07274073735063        1.12711713353805
H           -3.91366524057583        0.52461534580608        1.17039236342793
