34
 energy: -56.924645004033 gnorm: 0.000886774727 xtb: 6.6.1 (8d0f1dd)
N           -4.83521322463361       -1.77666705392733       -0.39711076973470
C           -3.87702307486436       -1.21525844961260       -0.09414953715109
C           -2.68534775400035       -0.56119889696912        0.26034788216294
C           -2.74438022653237        0.31225749952311        1.40712150869011
C           -1.96225499153047        1.37672739649382        1.64979764405697
C           -0.92007346395828        1.90038385096703        0.79066100453398
N           -0.80067469955079        3.28958161499478        0.80507808900131
H           -1.14769456883119        3.72818420714262        1.64430868905002
H            0.09349051202026        3.64907337860263        0.50711925534493
C           -0.13888031928993        1.13201688952949       -0.00815251816617
C            0.81591275421738        1.70939314639332       -0.96700143576233
N            0.32761403755500        2.70112611340312       -1.77489956151702
H            0.83832021101726        2.93896201325234       -2.60911355391683
H           -0.66909563047866        2.83019332791850       -1.79992581694803
C            2.12209505777563        1.34840667747645       -1.03039272862692
C            2.78501682030522        0.38210940442289       -0.21094650780970
N            4.14099115352700        0.52893961110067       -0.10851776031966
H            4.64088381620268       -0.07518084875996        0.52238313704060
H            4.55033732329689        1.42266457116385       -0.31461902976894
C            2.18370119764372       -0.72679798215691        0.35619907443999
C            2.98629856377814       -1.58925452349432        1.11380646000844
N            3.64027859603883       -2.28984341732377        1.75586164177552
C            0.81753856723274       -1.16903490847835        0.11748216330364
N            0.64390069886375       -2.55669144732274        0.05260249762002
H           -0.25838605562625       -2.88470566197300        0.36708092200120
H            1.40361699250846       -3.07908482184803        0.46672589664126
C           -0.22989146680762       -0.33196505282021       -0.06992612035243
C           -1.55154544710804       -0.84422091636200       -0.46131147794043
N           -1.59123564477727       -1.59473464069572       -1.59355593665886
H           -2.45741469328861       -2.03834096925690       -1.85554335747277
H           -0.73187111403997       -1.99751945989394       -1.92604089975532
H            2.76140565639137        1.88713914330014       -1.71985207238137
H           -2.18646539709884        1.97931240752522        2.52175165004925
H           -3.55994726236411        0.10911773248662        2.09050715116557
