21
 energy: -34.974481138499 gnorm: 0.000765109138 xtb: 6.6.1 (8d0f1dd)
N           -3.26930403408127       -1.22656268759997        0.78975117025888
C           -2.22449740429921       -0.54052291815211        0.25593459349547
C           -2.51427339554563        0.74360321351493       -0.26810517051473
C           -1.62275612100076        1.66244843870519       -0.77150682052896
N           -0.32243120680981        1.75605783462310       -0.55734770033392
C            0.42307273874613        0.81415171549763       -0.04377957670004
N            1.42608594082277        1.05487256625063        0.75219192984222
C            2.56949230471725        0.45186392135850        0.95303541904731
C            3.18756994161692       -0.43027257825872        0.07218792558845
C            2.45053756559888       -1.09711974300319       -0.90241773542719
N            1.15371087002800       -1.28280616462934       -0.88293036036927
C            0.18785719821741       -0.64727156940292       -0.28019524238629
C           -1.00666795252850       -1.21669742785243        0.13897584580157
H           -1.00284511959032       -2.27843140903636        0.35135280292814
H            2.96154171167695       -1.64401158070476       -1.68754553116988
H            4.24511540490016       -0.62446198225503        0.16486672722557
H            3.08834622598489        0.77492693887452        1.84953378925808
H           -2.02589665247071        2.51198629291230       -1.31298391354558
H           -3.56483344191453        0.99880111044050       -0.32669144963272
H           -4.19909372159195       -0.85193789333489        0.72746141244696
H           -3.16491061947680       -2.19824444044762        1.02009241421558
