28
 energy: -45.016330140764 gnorm: 0.000534946951 xtb: 6.6.1 (8d0f1dd)
N            4.19814262321184        0.37598127942573        1.04634999164488
C            2.88779243139959        0.37042005376592        0.58232692154440
C            2.58679930403066       -0.70486317909046       -0.32629067289146
C            1.37723194229276       -1.19879130723057       -0.67426773536530
C            0.09698206626883       -0.72879425248268       -0.12541162349146
C           -0.86989640819014       -1.61004187349213        0.23167713555199
N           -2.07976989792171       -1.35925924386418        0.79680134051942
C           -2.72406971042341       -0.24819516403049        0.64889675019382
N           -2.54143352125534        0.70838450060403       -0.30899254475979
C           -1.38702367383029        1.08119848572411       -0.72957675350117
N           -1.30981402217379        1.82381323393710       -1.85838929870142
H           -2.16402504233011        2.11893974620167       -2.30032283306756
H           -0.45680749597806        2.31130470167877       -2.06756172233133
C           -0.09084588419751        0.71932277727505       -0.10570120470825
C            0.77784806432388        1.65391566846745        0.32386771435102
C            2.07997037246548        1.42920435591316        0.86037860856860
H            2.48763642715793        2.22281248394576        1.47430695907642
H            0.44595372373707        2.68730579056017        0.31453630512834
N           -3.82143167308394       -0.03778901063822        1.44006444834104
H           -4.50886800432706        0.60550557140245        1.08582057729505
H           -4.16020484939837       -0.84777384036342        1.93172756495293
H           -0.64674613114659       -2.67108469079217        0.19088641398489
N            1.28849014596574       -2.26790791235457       -1.53965292277313
H            0.38458900317252       -2.44913274288562       -1.94309008104826
H            2.07897475567744       -2.44750185776423       -2.13738696322581
H            3.45828433005455       -1.19864163987439       -0.74245643843935
H            4.37562620589294        0.98650718385543        1.82859162504936
H            4.63621050530443       -0.52776288239199        1.12908839620222
