25
 energy: -43.444719762468 gnorm: 0.000437929632 xtb: 6.6.1 (8d0f1dd)
N           -4.51845604527776       -0.87713927126267        1.10322720874630
C           -3.41980827121619       -0.82392929110438        0.76976299595579
C           -2.07456278249105       -0.73802244739131        0.35866346945528
C           -1.65553588030935        0.53710730143896       -0.19485549301917
N           -2.65054855306467        1.35698069666463       -0.60178689938399
H           -3.61083306439655        1.10880793063705       -0.43415907575303
H           -2.43485673451623        2.28225012724015       -0.93395664464473
C           -0.34073249607208        0.95181571981959       -0.29690426166465
C           -0.13335869718612        2.24848178407584       -0.80524683957170
N            0.00634654194611        3.30997804915804       -1.22637902803585
C            0.88344640270043        0.26708379753276        0.09786578147021
C            1.88138844202280        1.03431403642693        0.64138712370910
C            3.18850725980122        0.62109026814856        1.01134694684205
N            3.92010728409168       -0.30282958185744        0.49339897436804
C            3.51217842171891       -1.15389822666779       -0.46946965010293
C            2.26485259193650       -1.62375268945863       -0.71077551612287
C            1.01136077770590       -1.15784172333861       -0.16140172991981
C            0.00373768094375       -2.07612803021766       -0.00641267179597
C           -1.32390179563913       -1.88210749568924        0.41030854027750
H           -1.84158321080068       -2.77080541748291        0.75298557889841
H            0.28939714299274       -3.11131173758146       -0.14722254515942
H            2.17229532629747       -2.46018056258264       -1.39390788469025
H            4.34234040625083       -1.59266905106922       -1.01281089989298
H            3.68112900843840        1.20697540166126        1.78242356173344
H            1.62864003612750        2.05686699739308        0.89489013900209
