31
 energy: -59.397031120108 gnorm: 0.000780876416 xtb: 6.6.1 (8d0f1dd)
N           -0.57006224478793       -3.78917813499424       -1.49459600848787
C           -0.85780711730171       -2.75645251523262       -1.08600160163303
C           -1.22031248376494       -1.47746582354702       -0.60264177268307
C           -2.56254292221360       -1.14184138939655       -0.70229370138930
C           -3.23308064875031       -0.05682716149173       -0.16028853832434
C           -4.63881089525353       -0.07833479263467       -0.26947568005171
N           -5.78575043204010       -0.07819386346564       -0.34577613998484
C           -2.65824924797412        1.08782702717172        0.47283529705177
C           -1.30568148541647        1.41973252994056        0.48323528711115
C           -0.16613238905142        0.70207974490150        0.11003728982113
C           -0.14608843449050       -0.74731333027828       -0.02153556161876
N            0.85237313337860       -1.47899396629411        0.40037824084727
C            2.12579703766206       -1.26746948790564        0.62354493958495
C            2.89092979903648       -0.23839187454334        0.00703614771949
C            4.27572600828902       -0.43140120456685       -0.08677185269684
N            5.41234309179516       -0.60283013182260       -0.15262535982835
C            2.35072221598378        0.99640656800580       -0.40516240262069
C            1.01595479882366        1.43577683028987       -0.16813608547370
C            0.83656049384734        2.82317827217501       -0.33685891355178
N            0.72691242552894        3.96118591421749       -0.47151547252952
N            3.19908737462584        1.87717009786324       -0.97774706864967
H            4.17507833248914        1.64640875377765       -1.06136988300649
H            2.89840532544210        2.81462017264261       -1.18532292445186
N            2.74565394286413       -2.16416606474181        1.41451779747282
H            2.22723184671169       -2.97470784253164        1.70805637039099
H            3.75053546273672       -2.18164813745335        1.46095589944574
H           -1.11074748078839        2.43476471256278        0.81301215235147
N           -3.51724008380304        1.97271523577880        1.02807920973543
H           -4.51037776594284        1.84019577223773        0.93374960686619
H           -3.17951564448998        2.85327440920398        1.37492410405749
H           -3.18789075534592       -1.87809800416978       -1.19615137967512
