30
 energy: -54.869078530232 gnorm: 0.000943200421 xtb: 6.6.1 (8d0f1dd)
N           -3.17033311585040       -1.78237252670940        1.64617906492370
C           -2.15281709125046       -1.69086991742680        1.12116617693041
C           -0.85176104904844       -1.60219134763827        0.57684532372878
C           -0.04340319740259       -2.73237466957749        0.84965132714702
C            1.16813059609495       -3.05210497036264        0.31643056758990
C            1.84456611418912       -2.21145793724790       -0.62075571666165
N            1.74895016005359       -0.91455687213471       -0.65281863140435
C            0.90672367388801       -0.03821040705477       -0.13437904763610
C           -0.50776675758999       -0.37440453104989       -0.01707186313946
C           -1.52615073669408        0.49406378973837       -0.47251096991321
C           -2.69784080412333       -0.12437377842717       -0.94946672936135
N           -3.63714797505851       -0.57984507640014       -1.43432554271526
C           -1.51688879804366        1.90975262850702       -0.49562587183497
C           -0.53613405751674        2.73526118101386        0.06485030134344
C            0.75456341283286        2.43147145339287        0.47087175170160
C            1.43829258200630        1.20196895072677        0.23601026639519
C            2.83948740640064        1.22733820817919        0.37051234058654
N            3.98182450227036        1.28097175310898        0.49785064716363
N            1.47611591045403        3.41560999029022        1.06368955240099
H            2.45769216654929        3.27644298507847        1.23539594549678
H            1.11225837671090        4.35071925879879        1.10254309501735
H           -0.81940017062872        3.77649537888417        0.16757233181800
N           -2.60330572387835        2.52303059527319       -1.02640723081496
H           -3.39746097875395        1.97210251610526       -1.30758458089569
H           -2.72420738065443        3.51379516538779       -0.91628744855414
N            2.69314373503973       -2.77688011438104       -1.50559047771796
H            3.24189094234512       -2.17744979498853       -2.09662891007481
H            2.93876762353494       -3.74694868937377       -1.42741773914800
H            1.59822315664487       -4.02039601247371        0.52554701163293
H           -0.50849878082101       -3.46818409073949        1.49524112989613
