28
 energy: -45.803906547453 gnorm: 0.000450206828 xtb: 6.6.1 (8d0f1dd)
N           -4.53609633094925       -0.01122408483416        0.70698101097080
C           -3.46764327070946        0.19603262544202        0.33276399950892
C           -2.15480748569087        0.41130854078304       -0.12363563019572
C           -1.16582519537270       -0.39284957606990        0.38640202237822
N           -1.39550588173303       -1.21942122018139        1.44258414678599
H           -2.33912063046529       -1.31723927073805        1.78326447454120
H           -0.76153069566842       -1.98840921023233        1.58382368111402
C            0.21763364551313       -0.39581279312738       -0.12250670037205
C            0.82146051945916       -1.56216887262905       -0.48572616349480
N            2.09782678727261       -1.73392416384386       -0.94294247059976
C            3.10848813451501       -1.01939316169742       -0.59566616457878
C            3.18270488734353        0.07186208069448        0.31322835077924
C            2.16441560770134        0.92736615806168        0.60183198001972
N            2.30896646800217        1.92654964766825        1.51278724045274
H            3.07747730587390        1.90345221336653        2.16073263977701
H            1.51646023845577        2.50170105413332        1.73725392312452
C            0.87806063058624        0.90510695288615       -0.12348407573242
C            0.37816879145821        2.03181488989655       -0.66579365440272
C           -0.88220742400811        2.17530240024040       -1.33723142190618
C           -1.99392637703278        1.45212684040218       -1.11186458447772
H           -2.90226054986124        1.72222618591678       -1.63616058871274
H           -0.94436958601054        2.99473151729311       -2.04131936533407
H            0.99612141366267        2.92138030187858       -0.63837510748514
H            4.14580797266118        0.25304988198719        0.77361192009992
H            4.05349438924150       -1.36778837679786       -1.00520597989856
N            0.11521360138190       -2.77145990404990       -0.45724633723655
H           -0.84589125361789       -2.70987339214679       -0.76493256122905
H            0.62629631509392       -3.49148390790921       -0.94980956029937
