28
 energy: -51.428662210775 gnorm: 0.000513274557 xtb: 6.6.1 (8d0f1dd)
N            0.81159429831523        3.78124255801353       -1.34976280441469
C            0.94999492420986        2.70928519671327       -0.96119788437637
C            1.12800470330094        1.38436396871167       -0.50481812529145
C            2.43452735177949        0.94146778631811       -0.47080759343440
C            2.95548200553819       -0.26007212514411        0.01322172657047
C            4.35847191434963       -0.32713973489499        0.11586505447594
N            5.50183815287313       -0.40551603414533        0.21093992443448
C            2.23344393761899       -1.43260968369107        0.35825147359942
C            0.86399974439431       -1.63279831823302        0.14839131820163
C           -0.15596889962310       -0.74693416048410       -0.15867036631281
N           -1.28026645877238       -1.31018841044939       -0.61007150061715
C           -2.53423692420867       -1.03647877490075       -0.47537271471935
C           -3.07608271623298       -0.08463780617124        0.48244740388682
C           -4.39807047922902       -0.27983542321878        0.90668700238446
N           -5.48062064800550       -0.48775196235198        1.23638607241094
C           -2.39336613524547        1.06347182882325        0.81809700907762
C           -1.11562751846981        1.46146899647458        0.40866909971014
C           -0.06588832361479        0.70425556114526       -0.08688559223906
H           -0.89115201433523        2.50744298584137        0.57877452560404
H           -2.94328420056379        1.78742070116835        1.40811469899140
N           -3.40935934781881       -1.70573914192222       -1.24771739331333
H           -3.06401537902896       -2.38457597300029       -1.90320937571583
H           -4.39887932567970       -1.61248806435018       -1.09786067973378
H            0.53341090117341       -2.66238705770364        0.22401455870672
N            2.94441423479929       -2.48084664197240        0.82790338440403
H            3.94590569042370       -2.42052978161488        0.90652777872590
H            2.49303963289115       -3.35854193939879        1.01353430316047
H            3.17749752416076        1.66293684293775       -0.79547931667620
