27
 energy: -46.905452929061 gnorm: 0.000848298991 xtb: 6.6.1 (8d0f1dd)
N           -4.99774647163267       -0.30414738450822        0.62748312132152
C           -3.86005915920777       -0.23940730546290        0.46224619274128
C           -2.48329826489360       -0.09539202139939        0.25268508012015
C           -1.63029073855049       -1.16186018875802        0.48566767392764
C           -0.26152571568793       -1.26762498009500        0.23961065085014
C            0.23627343819497       -2.57731660060499        0.40590453276517
N            0.62009668910035       -3.65390021471470        0.53312746101043
C            0.71804970061020       -0.25465927827103       -0.02644145854201
C            1.99408929293554       -0.67749314623115       -0.38148640218594
C            3.23202882389015       -0.02330046628317       -0.33720609827931
N            4.28982801955101       -0.68841878548049       -0.87032635500602
H            5.22283543607880       -0.34989100057625       -0.71667346143957
H            4.17827624999645       -1.63866036112518       -1.17751638683853
C            3.49967320121706        1.20864393841922        0.28297243079416
C            2.58468430257830        2.10627062345763        0.78920954304322
C            1.20660997994847        2.10751754915279        0.67379215486963
C            0.34756577362829        1.14028877907601        0.13500625705487
N           -0.82701411250207        1.60632661892033       -0.26624954115609
C           -2.02578578663415        1.11907804019211       -0.37274697454413
N           -2.91635075919198        1.83450712908366       -1.08945888128916
H           -2.63186335698377        2.71590701030842       -1.47873222806035
H           -3.89079716270208        1.58738290981008       -1.07092922113447
H            0.69696737622874        3.01107772222541        0.98308257510548
H            3.00778416750299        2.98053630030551        1.26883502734952
H            4.54589552309729        1.47176305881965        0.37209456480766
H            2.05649875338851       -1.71316915106322       -0.69924249032952
H           -2.10489522299218       -2.07298883934039        0.83554653006585
