28
 energy: -45.811245389159 gnorm: 0.000791190285 xtb: 6.6.1 (8d0f1dd)
N            4.79942480591809        0.64604836611863        0.51070521309467
C            3.74083430366171        0.31895611976812        0.19898720766602
C            2.43726211981655       -0.05694768399132       -0.17165624780584
C            1.39468120097700        0.66081066706845        0.36521958912261
N            1.61556334100589        1.58282794249919        1.33962058101434
H            2.56435094552038        1.81781003967994        1.58548781826027
H            0.88712944586330        2.23954855113635        1.55936024000678
C           -0.00857154258469        0.49317920809734       -0.03743682435854
C           -0.76495214267778        1.58144766251074       -0.31524999761914
N           -2.05163828576745        1.64792125495363       -0.73093370012841
C           -2.97812923454349        0.80941612046623       -0.39501206579425
N           -4.23587613390873        1.09427002542794       -0.85145133271295
H           -4.28951243976652        1.78507515904482       -1.58116306417558
H           -4.92697539874020        0.36513179768562       -0.85444264164407
C           -2.88104047447752       -0.28803216950857        0.53919620608033
C           -1.77682726611578       -1.04227568512214        0.74455382255364
N           -1.78587743268533       -2.09075013753945        1.62513471981657
H           -2.50882190439031       -2.12050539841137        2.32476760278944
H           -0.90231200885930       -2.50440466279089        1.86886152850002
C           -0.52611062065125       -0.87578380523750       -0.02377868069953
C            0.06271690098896       -1.94507489173903       -0.59167809409903
C            1.30790463451336       -1.97064058072211       -1.30459765320828
C            2.34790438855237       -1.13681968530645       -1.12460667292869
H            3.26125249604286       -1.32508981312217       -1.67559261748858
H            1.42920963750649       -2.79080690312954       -2.00000871730713
H           -0.46688529776365       -2.88961575023918       -0.54865793315103
H           -3.78813181684484       -0.54228232496536        1.07366159328715
H           -0.28318747338817        2.55512137317152       -0.34228335557008
