28
 energy: -50.640822543538 gnorm: 0.000840907534 xtb: 6.6.1 (8d0f1dd)
N           -5.58459245487508        0.10980980384212       -1.05012565580478
C           -4.47668768467439       -0.03807106950417       -0.77298103032384
C           -3.13029548550589       -0.17305341497107       -0.40979102629299
C           -2.39760600765530       -1.24312060784342       -0.89710170878679
C           -1.10104481450577       -1.61889035089398       -0.57448111661634
C           -0.10307474138223       -0.86933744058015        0.04795331413607
N            0.98210512548101       -1.50981534591830        0.45737336695217
C            2.22434498048224       -1.12555672930229        0.55409582650789
N            3.04080995385469       -1.92526362786674        1.27776188661666
H            2.66511693814688       -2.78926863265940        1.62778177833059
H            4.03830924455005       -1.81315766219835        1.21470024552577
C            2.81189597625399       -0.00503744205947       -0.11932787468054
C            4.19038054891789       -0.05355826398049       -0.34876063091825
N            5.32738381314242       -0.10941305071806       -0.53451607100514
C            2.11267482115678        1.17369481898837       -0.44253415620861
C            0.77122895636761        1.44725515839257       -0.11424062913720
C           -0.25385172757946        0.58040812787141        0.21388652637617
N           -1.37711918300852        1.11261191099159        0.69973940321238
C           -2.61821258850035        0.75985131183911        0.57093942004673
N           -3.51378577725040        1.36664192982645        1.38026063044576
H           -4.49882261739089        1.27164423401258        1.20244589886929
H           -3.18843902664237        2.08808123747580        1.99940959716462
H            0.48101800192713        2.48948323635614       -0.16778589737511
N            2.81551028369782        2.17769055623005       -1.01995171623370
H            2.38607686076707        3.07215739165343       -1.17156242860592
H            3.80426819022888        2.07781486509802       -1.17524311876283
H           -0.78932684470180       -2.60676706468234       -0.88675224198615
H           -2.94223954653422       -1.92317796433127       -1.54251651475212
