27
 energy: -46.897673615626 gnorm: 0.000446522379 xtb: 6.6.1 (8d0f1dd)
N           -3.28974224929792       -2.78519534845211       -0.63033124137341
C           -2.66980910998070       -1.83276454261739       -0.45946035840175
C           -1.95751367941565       -0.62381728765057       -0.28696636946356
C           -0.63406900572193       -0.73247555207776        0.15151557390828
C           -0.24924493596183       -1.99726944843826        0.69539936450660
C            0.99137135377659       -2.54947210585461        0.83428386708778
N            2.15381651560944       -2.19014018783538        0.29340241412611
C            2.42486284613993       -1.01055686465219       -0.20110410784514
N            3.58632103361489       -0.92423557369866       -0.88093549746225
H            4.16348388467668       -1.74653086352532       -0.92159731761896
H            3.96237432082940       -0.03374221048045       -1.15774550163654
C            1.67724037376518        0.21381553639985       -0.01185137658718
C            2.46049732118286        1.37196018030830       -0.14578345852485
N            3.15310660342663        2.28507391502971       -0.26917662755613
C            0.29669278833667        0.37947915521299        0.16906455272230
C           -0.12908609469688        1.70693365562247        0.44184134471347
C           -1.33120243726457        2.35329898678568        0.26029889044620
N           -1.42605166177698        3.64650763744491        0.66738941258018
H           -2.22241684444622        4.19775583261078        0.40290760354244
H           -0.60561105719488        4.12982196927936        0.98867866528510
C           -2.49223903660803        1.81683479213519       -0.37684935482689
C           -2.73068546061421        0.51170230974606       -0.64486945355216
H           -3.67440752177392        0.27324113263045       -1.12195004737359
H           -3.25556405672913        2.53521896060714       -0.64469608187406
H            0.66208634335180        2.34540610660397        0.82104203918835
H            1.05968559904252       -3.49378680019245        1.36457517891415
H           -1.07413820987166       -2.60322864614328        1.04928169497780
