20
 energy: -35.264864949452 gnorm: 0.000591061717 xtb: 6.6.1 (8d0f1dd)
N           -3.08396402745634       -1.22373892619480        0.95514561049956
C           -2.13355949202690       -0.55677176624749        0.26670510801677
N           -0.96769227777044       -1.17320262103496        0.16972079778481
C            0.14562292611324       -0.61979205520374       -0.25185982624562
N            1.07215103607868       -1.21416183380791       -0.92993560105262
C            2.37307180874451       -1.00636413576697       -0.96224854625990
C            3.12020884477469       -0.42902345419392        0.05380155327065
C            2.52621119494615        0.37102345904561        1.03328558177139
N            1.38996736949194        1.00676733334265        0.91363152269278
C            0.40749999547692        0.82995114389284        0.07361071197659
N           -0.33496224112964        1.75960760074828       -0.45022609924986
C           -1.60289502898119        1.60442390874244       -0.82055613662126
C           -2.49478972277738        0.64955999977222       -0.40015931194812
H           -3.54973689614603        0.82147079770935       -0.56509241658345
H           -1.97311250956025        2.43003317871618       -1.41822131981480
H            3.07071679416426        0.60301408025938        1.94195110357332
H            4.18331038345352       -0.61345472902611        0.09966159022627
H            2.86973859778197       -1.46876130706167       -1.80735661912614
H           -4.04027608276799       -0.92003073211399        0.93105110428955
H           -2.86281240160952       -2.13667291277837        1.31243052879984
