26
 energy: -46.399488817120 gnorm: 0.000316972291 xtb: 6.6.1 (8d0f1dd)
N           -1.81491609943464       -3.34983642670111       -0.45384488757303
C           -1.50842793169914       -2.24688309232141       -0.32211641912890
C           -1.19263169398122       -0.88590668662347       -0.18634257843251
C            0.13483434815547       -0.56076228544635        0.16184240684289
C            0.94027029440957       -1.53726879867983        0.76051416923243
C            2.29990365889014       -1.48973503289717        1.05842353197313
N            3.25560326527786       -0.74374379452195        0.56029567818791
C            2.98471628807343        0.20947100046167       -0.35315995273705
N            1.92381771436513        0.96726281765724       -0.44329359229612
C            0.68001929684191        0.78924310266758       -0.01509659450861
C           -0.05114779547193        1.93931349635907        0.25070230408241
C           -1.43521458285402        2.07184362875393        0.41689065657958
N           -2.40047253302933        1.25960054712264       -0.00241392282798
C           -2.27665325206853        0.01291323263051       -0.41253860110124
N           -3.37718210283887       -0.47492881536259       -1.02975089086993
H           -4.19885813818151        0.10340273236881       -1.04539710436420
H           -3.45832780967780       -1.45951990652655       -1.21878957609588
N           -1.90301871989776        3.22003429445991        0.96405579361371
H           -2.89372994623877        3.38380153717113        0.94593838171793
H           -1.27885298820827        3.97681903621288        1.17418744871336
H            0.53627257747562        2.84452789352196        0.33154362104473
N            4.00568894089719        0.48814029272475       -1.19346669329704
H            4.89701408954702        0.06537845334771       -1.00642908324512
H            3.94607578865114        1.29999211702271       -1.78110362595621
H            2.66883396434571       -2.24471300075994        1.74759557080583
H            0.41824999445545       -2.41979640114368        1.11060321963796
