26
 energy: -42.369350758683 gnorm: 0.000784633932 xtb: 6.6.1 (8d0f1dd)
N            4.37162392091374        1.19943430910144        1.12779205567828
C            3.40068998278338        0.71944199492886        0.74478763495584
C            2.20313750899185        0.14149502027032        0.27913029539477
C            1.26118553972554        1.03217776436568       -0.34555081232463
C           -0.07221233305664        0.83342945174129       -0.46285271485845
C           -0.91628697697075        1.82362197244960       -1.13351479072898
C           -2.09410977857527        2.26366193547464       -0.67480511401634
C           -2.76620747359550        1.83731334223026        0.52655424845303
C           -2.67944242430983        0.63399291663035        1.11628351989356
C           -1.90261720404731       -0.49648837297942        0.65148747326308
N           -2.43983925711816       -1.75320656983813        0.93986853389295
H           -3.07257401256250       -1.76252255108127        1.72614114294806
H           -1.76639393194713       -2.50499910481473        0.97911749812623
C           -0.74591680967488       -0.38601361872744       -0.04141539958217
C           -0.03549848802342       -1.58525365531449       -0.57582511162688
N            1.13797100684779       -1.96545046876781       -0.22321508028967
C            2.05485551310492       -1.21490988952549        0.40731587015685
H            2.81920433786740       -1.79004259374996        0.91589744196030
N           -0.70675292897021       -2.28401661881890       -1.51689924430263
H           -0.26000518428919       -3.07461974687450       -1.94866687786857
H           -1.69644283344325       -2.15281439864586       -1.62598764364869
H           -3.31199102834759        0.43634215192272        1.97391692597638
H           -3.45718455738123        2.55728337978500        0.94630939593994
H           -2.59468443059422        3.05323755003043       -1.22168250461173
H           -0.51347730179161        2.25167347372860       -2.04384812999256
H            1.66012348346410        1.98377960817942       -0.67549129908867
