31
 energy: -60.170678341870 gnorm: 0.000895492462 xtb: 6.6.1 (8d0f1dd)
N           -5.40656493043612        0.35207180548416       -0.95397738272085
C           -4.30312391591379        0.23030038996547       -0.66664295268159
C           -2.93787974361976        0.09137836480704       -0.32388175586739
C           -2.29409252918496       -1.06213885686312       -0.72116640123520
C           -0.99326959423754       -1.48015516990504       -0.39215974267304
C           -0.71799024404368       -2.82457296887055       -0.75307317554324
N           -0.51648873067312       -3.88837099352425       -1.13123139307878
C            0.10450534757104       -0.74122191932666        0.07606595013585
C            0.10307220584323        0.70440489639787        0.08775330984525
C            1.14106745121444        1.49917374728462       -0.32378381640152
C            0.88243941918843        2.88583553264112       -0.44747204042781
N            0.71406958516046        4.00422473936243       -0.64395116693812
C            2.47735530936427        1.10000790020488       -0.73206759181756
C            3.11165154324656       -0.03939136622809       -0.30125498119123
C            2.59614691770130       -1.11182958404251        0.46236355362760
C            1.23542101686764       -1.44804134227096        0.58199048630597
C            0.94384648245259       -2.63133276617597        1.29169895516675
N            0.75503581652243       -3.55455681360143        1.95036622977116
N            3.49895142530915       -1.94162218515429        1.02227999719788
H            3.19320431308808       -2.77183256484800        1.50312275809976
H            4.48287907748766       -1.79676867638306        0.88347657427235
H            4.16550323237849       -0.11338543925299       -0.54032230170327
N            3.15101261764672        1.98014647748757       -1.50319085658616
H            2.75264477301575        2.87884578730742       -1.71883597990475
H            4.11951709707204        1.82286633209075       -1.71895146589806
C           -1.05786145353488        1.35584833105096        0.69552957269354
C           -0.71484899464346        2.35199702240859        1.64099955094674
N           -0.43295680347563        3.11500942709027        2.44972609603594
C           -2.38201385035829        1.10498056817502        0.49622203293351
H           -3.08613500760393        1.76316892416206        0.99152902243788
H           -2.88562956010599       -1.78329974407308       -1.27377225420116
