29
 energy: -55.163738635756 gnorm: 0.000732856305 xtb: 6.6.1 (8d0f1dd)
N           -0.44628005507596       -3.50657016571094        1.73581077103432
C           -0.73978609147875       -2.49780926012786        1.27343742959852
C           -1.09601597390693       -1.24473934900546        0.72863841883296
C           -2.44005831904238       -0.90203310555470        0.74839740722250
C           -3.08960201091815        0.15627005346630        0.12566520315694
C           -4.49841977067241        0.11135618210047        0.16973770166328
N           -5.64767875308597        0.09312897195657        0.19606341274487
C           -2.51691092151571        1.29391819517737       -0.52339333626734
C           -1.17780027277262        1.66791853025074       -0.46647373921011
C           -0.08059618311403        0.95660218576919        0.01183105665976
N            0.98042861208187        1.63849159357698        0.39459983278457
C            2.23909259629467        1.31032321931595        0.58786149562574
N            2.94063723079019        2.12600158385019        1.40349840146019
H            2.48625573321678        2.93860968623946        1.78037213272087
H            3.94079303546794        2.04183503068362        1.46057863574694
C            2.92781359709115        0.26534938583748       -0.09144018576774
C            4.32229991129058        0.30097851882439       -0.17274407886397
N            5.47154391598516        0.33634701564058       -0.24202870622239
C            2.21619927186215       -0.80992096942341       -0.66971277161436
N            0.99272992998088       -1.16762657385670       -0.31674965786665
C           -0.03760205626218       -0.50903724006828        0.13195974855962
N            2.83100732168071       -1.62674803677984       -1.55285964082929
H            3.82544864657036       -1.55044798493153       -1.68417414936071
H            2.37386238680867       -2.48960176045838       -1.79247533505650
H           -0.95398694759210        2.68082913489690       -0.77888287460675
N           -3.37481770226068        2.13271635879153       -1.15111467711512
H           -3.04203223515379        3.00241299509347       -1.52700973742817
H           -4.36698383750336        1.97412787500813       -1.09951551056820
H           -3.09173461866658       -1.61719186146019        1.23957549536672
