25
 energy: -42.651463425516 gnorm: 0.000350222223 xtb: 6.6.1 (8d0f1dd)
N           -4.17821721170883       -1.43415745668250        1.22895733998301
C           -3.26446859192186       -0.84291453519550        0.86154192742412
C           -2.13442299298064       -0.13851476619909        0.40058213353280
C           -2.18112112329006        1.23153451436162        0.39252669899723
N           -1.34435687540175        2.04758185194415       -0.26285571211081
C           -0.10504857283349        1.84304896349761       -0.51946411724188
N            0.50834571413790        2.57877265499241       -1.46952725558165
H           -0.01825199671236        3.29629843222466       -1.93854262523588
H            1.51171018367262        2.60565885354188       -1.50855308646717
C            0.73746640223595        0.80294273649058        0.13622081226901
C            1.84310472979236        1.10990810142454        0.84177870437821
N            2.65685341625572        0.26451530373170        1.52942738807176
C            2.90002177189730       -0.94289826862951        1.16652134457302
C            2.46952277999276       -1.64684909753992        0.00099112874541
C            1.30130751296525       -1.44610116838996       -0.66849163176726
N            1.02080735625005       -2.08603594596242       -1.83506892587671
H            0.07148190826518       -2.11500666542939       -2.16354682451559
H            1.65732074260979       -2.78307811168535       -2.18161716240325
C            0.25371035175652       -0.53771354820073       -0.15958903031171
C           -1.03379532915164       -0.93846260014107       -0.06767789356688
H           -1.26675394160431       -1.97745268595048       -0.27284823225319
H            3.11467960396358       -2.44751368670513       -0.33963956725329
H            3.60921024897519       -1.46572110985277        1.80283644141166
H            2.09689396475931        2.15373313685577        0.99738473893409
H           -3.04533031122306        1.73509340959897        0.80852995296550
