31
 energy: -48.152239248994 gnorm: 0.000656972249 xtb: 6.6.1 (8d0f1dd)
N           -4.18177726947058        0.02852295487651       -0.96254769190910
C           -2.86735483530237       -0.01989658603524       -0.50807429603578
C           -2.10526405767413       -1.10594493720894       -0.79889976708102
C           -0.81804647072340       -1.43205931547612       -0.25422102053031
C            0.10015824022127       -0.53619204302484        0.18562931479121
C            1.33574679995505       -0.97822714655749        0.86462788709083
C            2.57235548578208       -0.60582936561460        0.46504086097837
C            2.84329156150067        0.34668819315641       -0.58987126512331
N            2.14665936662939        1.37664696528260       -0.93016845200457
C            0.95431456417704        1.72078762133914       -0.36611237216783
C           -0.02747302750881        0.91936654380685        0.09867841557752
C           -1.25849425426317        1.49613204149829        0.65677229303181
C           -2.50404498255333        1.05841944807264        0.36991386262795
H           -3.33911745401404        1.60646235148512        0.79091985514311
N           -1.07433473589958        2.59647385383955        1.46684479453910
H           -1.83126077549119        2.84757789002005        2.08289658675366
H           -0.14820020059095        2.72724696509351        1.83854075444870
H            0.77357288682715        2.78985106127088       -0.41540117085996
N            4.07827175856225        0.22850781964125       -1.19177165574732
H            4.48914789693533       -0.68844157225494       -1.24069410489153
H            4.20619956246945        0.81559774173828       -2.00003884004295
H            3.43774231119565       -1.03098303728987        0.95978945258569
N            1.13688952159668       -1.76087071506960        1.97495289758041
H            0.27127801046078       -2.27358935459115        2.01317230994860
H            1.94049365348004       -2.20399664513516        2.39016921852314
N           -0.53527695899212       -2.81323227885490       -0.16932596353963
H            0.44034497428773       -3.03511903642860       -0.31989590125757
H           -1.13192889904465       -3.36855547722722       -0.76664802474708
H           -2.55803609955778       -1.87328077717476       -1.41852764553746
H           -4.39389393931674       -0.58495159665516       -1.73396864973253
H           -4.57123312397817        0.95264994867879       -1.06417803121344
