23
 energy: -39.202602222531 gnorm: 0.000447441152 xtb: 6.6.1 (8d0f1dd)
N            4.35008536981907        0.70526590524201        0.37256716181511
C            3.29076588203332        0.30728594408657        0.17052126267504
C            1.98013427597778       -0.15518422240126       -0.06691033974107
C            0.94914078887201        0.67751381287329        0.30549369620873
C           -0.44369244735976        0.39862659053072       -0.06441605778610
C           -1.23151938812240        1.35990135618644       -0.63166352942462
N           -2.49842142416027        1.23792061595562       -1.08226569050608
C           -3.34539641125745        0.38860088632865       -0.60877409877587
N           -3.23346799555508       -0.22950038212965        0.57843585860433
C           -2.16046788694313       -0.68682835944070        1.07140228733754
C           -0.92945281136898       -0.92919948938713        0.28035930437350
C           -0.37059085679325       -2.11807819236591        0.02031277214562
C            0.86537061012643       -2.30998890473586       -0.68115749005439
C            1.89042721617779       -1.43558806739208       -0.72152750378492
H            2.80398497584109       -1.74502873921599       -1.21417483794908
H            1.00131911424024       -3.27569960545320       -1.14814683987447
H           -0.89442270724839       -3.01134348692704        0.33532745068291
H           -2.12444077518566       -0.86010395340715        2.14323480423484
H           -4.31650201366839        0.33274152331504       -1.08277229042109
H           -0.78671459790865        2.31744403571767       -0.88280205066130
N            1.17127584874101        1.80466268994601        1.02573145924114
H            2.11558925149061        2.07055552228166        1.25268964321785
H            0.44309469054980        2.49086023159053        1.11633717234526
