29
 energy: -48.743889732507 gnorm: 0.000354551482 xtb: 6.6.1 (8d0f1dd)
N           -1.14933776704799       -2.59555709358197       -1.44629606100778
C           -1.27387703924365       -1.49290982132646       -0.64537924451779
C           -2.49940974717975       -1.01005242269996       -0.32571545067320
C           -2.77489670937272        0.08963656181594        0.56525965990877
N           -2.06435760481091        1.14269228953887        0.80319486802948
C           -0.85127853501614        1.40686362055157        0.22854951964209
N           -0.62671951237703        2.78733383500721        0.08279795486782
H           -1.31458025996282        3.30929163786376        0.60910971933023
H            0.31564333027770        3.07784519217667        0.30763687048637
C            0.09925558490997        0.51229958807902       -0.13210264982777
C            1.37592119745444        0.93025586772182       -0.75562171735577
N            2.54929425101660        0.61123392298271       -0.33782759281731
C            2.77975098553042       -0.31840953263172        0.63671029951742
N            2.18488010467748       -1.44996942580918        0.82621230405318
C            0.98364625925743       -1.77151815528959        0.27493003288651
C           -0.02121904438854       -0.94627741536805       -0.10652390674786
H            0.81469293075724       -2.84358142694975        0.26149307048217
N            3.87988112979232       -0.04339443491632        1.40656161714065
H            4.25864497790493       -0.82939720914700        1.90842320298851
H            4.53934838221111        0.60852141366213        1.01599638696454
N            1.26271626572100        1.65917203447577       -1.89037844879318
H            2.10445927888400        1.99976736258384       -2.32409201092103
H            0.39854361071215        2.14711342868207       -2.05329449622285
N           -4.02328549466840        0.08015131767559        1.13515214622219
H           -4.47623997171600       -0.80824120991328        1.26537870880047
H           -4.17112569713208        0.76971622599265        1.85374289158595
H           -3.36999737228315       -1.52804312373926       -0.71060379465497
H           -1.94216656543425       -2.88263528236005       -1.99541693400722
H           -0.23723381427309       -2.81242231617672       -1.80820962446067
