32
 energy: -63.128584692818 gnorm: 0.000902178000 xtb: 6.6.1 (8d0f1dd)
N           -3.76581484283828       -0.67705458217163       -1.53621685712583
C           -2.74922194028814       -0.82436231451727       -1.01810093581208
C           -1.46359672600486       -1.08347969555396       -0.50773213965878
C           -1.00704809438894       -2.42441632081679       -0.66555647870039
N           -0.05037804838974       -3.00978725866451        0.03182148491731
C            0.93377165971925       -2.44136762887814        0.69766723557899
N            1.58492268527132       -3.24832259889892        1.55544215674780
H            2.44682237151314       -2.95158169673933        1.98124819320992
H            1.31023120569220       -4.21420036393171        1.60026398312114
C            1.43802712154068       -1.11918076857496        0.49362706251659
C            2.75048646578185       -0.90504897548073        0.95472814655684
N            3.79019345188622       -0.79519419494228        1.43499753715146
C            0.73032515751568       -0.01027360479958       -0.00148917988272
C            1.46230657768103        1.08321747445955       -0.50838569544231
C            2.74783662208456        0.82399972377148       -1.01889505654933
N            3.76447910894565        0.67637366004245       -1.53712580506548
C            1.00575170612146        2.42409188553601       -0.66672991785864
N            0.04914330799366        3.00977491602066        0.03049742316893
C           -0.93488365031536        2.44164239925910        0.69672724247684
N           -1.58588088561539        3.24900260264736        1.55422295726735
H           -1.31117025761568        4.21489756110861        1.59853134426409
H           -2.44769921378991        2.95246899407899        1.98033459232318
C           -1.43915871161520        1.11935115084242        0.49335452324324
C           -2.75156163157298        0.90541993995602        0.95473892566871
N           -3.79116398513058        0.79579393810617        1.43517273602516
C           -0.73151785188903        0.01024634566574       -0.00141572729136
N            1.67646421237472        3.23771793763461       -1.50326479067060
H            1.43698953489066        4.21381148765862       -1.50979351501974
H            2.52035626971807        2.92397463868507       -1.95235841313368
N           -1.67786709412522       -3.23839603594226       -1.50163291168591
H           -1.43831862547948       -4.21439196731358       -1.50787797889601
H           -2.52187704497114       -2.92488841354688       -1.95067033234403
