28
 energy: -46.614826957482 gnorm: 0.000610265819 xtb: 6.6.1 (8d0f1dd)
N           -2.93569151546459       -2.57721990599310       -1.75462503442403
C           -2.50010251432463       -1.67305459224381       -1.19299978009391
C           -1.97586257616546       -0.55552540211990       -0.51383070302308
C           -0.64692970063822       -0.75256114828497        0.05439060018968
C           -0.34661384002356       -1.99468744305749        0.53654003350408
C            0.87815514069029       -2.48797067288935        1.04842016831900
C            2.13066922287215       -2.02654506866467        0.82295256081879
C            2.49543708934158       -0.92612877393497       -0.01821122862929
N            3.79849356916453       -0.88958430096235       -0.40500807114942
H            4.38436150786057       -1.69095058745498       -0.25589514853665
H            4.10084125488539       -0.19184159245430       -1.06374142421332
C            1.65626334036940        0.11066427512066       -0.38632243952021
C            2.20139825452095        1.10626965518832       -1.21363514421906
N            2.67176761259192        1.90776415860698       -1.89475989322989
C            0.27617308852746        0.36728740964076        0.02499702165117
C           -0.04944039601127        1.66949465514292        0.26224880031314
C           -1.31038154632792        2.29157506631040        0.51260722347859
C           -2.54638031968772        1.77873231192216        0.17264468675671
C           -2.79461622245188        0.54145369748004       -0.42681440322403
H           -3.78664478928935        0.41564642394178       -0.84650119941157
H           -3.39983296213419        2.43042169839734        0.30692931163906
N           -1.25074561547808        3.53333681777433        1.06747825129746
H           -2.08240343523813        4.09625139235600        1.10448678964978
H           -0.36650063197580        4.00616359095338        1.13053876699153
H            0.78566165205214        2.36165387002624        0.28526410243854
H            2.96288484832117       -2.58558165428517        1.23096998611274
H            0.79263836065008       -3.39463242561529        1.63454659917254
H           -1.16916599244047       -2.69812496150296        0.57992012003415
