26
 energy: -41.565423994511 gnorm: 0.000508654131 xtb: 6.6.1 (8d0f1dd)
N            3.90431618892159        0.43535559601817       -0.79579585177836
C            2.58306518612538        0.46159158746979       -0.38337548107791
N            2.26748155987940       -0.59695420210797        0.40979914797633
C            1.09855172997182       -1.05289455658437        0.65796014134103
N            0.95266339358058       -1.92616306602959        1.68775322392639
H            0.13327819927064       -2.50664846496060        1.72265102566488
H            1.78685633913906       -2.24403426350458        2.15200422463300
C           -0.16026861709097       -0.68688896691356       -0.04230595789529
C           -0.94293373867855       -1.63047280535154       -0.60293127411066
N           -2.09665279144143       -1.46826919646204       -1.31470313125397
C           -2.93865285417261       -0.52640195032338       -1.09288755194849
C           -2.92781361171815        0.49364784769908       -0.09034642260801
C           -1.82050850653950        1.05359224334441        0.46565001838888
N           -1.92376680162781        2.02927826639182        1.41357723821093
H           -1.08574964472012        2.34829570618655        1.86739889548647
H           -2.79790581961321        2.16218293825438        1.89278079968001
C           -0.44854913603273        0.73807240858655        0.02424166465037
C            0.45467910636427        1.72516248252062       -0.20090930854931
C            1.81502945247439        1.57633950473349       -0.57626787452207
H            2.29532147795234        2.43783811569599       -1.02029106632436
H            0.08531206818812        2.74404864651703       -0.17483250639154
H           -3.89429921281904        0.88669412941758        0.20275524698084
H           -3.83310335212225       -0.57415516236010       -1.70991029131293
H           -0.60668157689781       -2.66367638797435       -0.60008823783524
H            4.13611931134998        1.01223234062283       -1.58681728083544
H            4.32724717565752       -0.47843603238619       -0.79004082829517
