26
 energy: -47.191050059785 gnorm: 0.000745393191 xtb: 6.6.1 (8d0f1dd)
N           -5.50100981332430       -0.63793744464924        0.14169548124179
C           -4.35777230035559       -0.51057102047123        0.16703004251158
C           -2.95991036442959       -0.33741088349212        0.19128121776685
C           -2.46604514365011        0.86738033683746       -0.38796973490946
C           -1.16575668900067        1.35389698471213       -0.25179233949979
C           -0.04828970662575        0.70900631379446        0.25939399037314
N            0.92562622686747        1.43015775552315        0.78385092820156
C            2.19426383313310        1.22132668793627        0.97932636676447
C            3.00695861810608        0.30125676298323        0.31060148595514
C            4.40097316364182        0.42616271685422        0.33120990394086
N            5.54950775108156        0.49771923684648        0.32445096272069
C            2.41972164645514       -0.78944963967165       -0.40249248662451
N            1.22480047224159       -1.27329836937342       -0.14892722761276
C            0.11177929716480       -0.75590688164439        0.31000223519611
C           -0.88559869541856       -1.60675073586077        0.80561538731188
C           -2.24072008786116       -1.37415759629442        0.79182273226142
H           -2.85911179416239       -2.16078357971361        1.20998764908454
H           -0.54996370843127       -2.57883250242728        1.13999784437306
N            3.16152759179850       -1.46335589793603       -1.30747530701029
H            4.14486463544014       -1.26765184751086       -1.38809855793833
H            2.79619357760357       -2.31813374703007       -1.69025856150271
H            2.66308941293913        1.92357896380048        1.66165027646798
H           -1.01878514027130        2.39761408303917       -0.50304096022967
N           -3.36277056290437        1.65593022644883       -1.02821255569386
H           -4.34139163242762        1.42210283430182       -1.01128476355716
H           -3.09228757561018        2.57329195729765       -1.33504758309281
