24
 energy: -42.957275789628 gnorm: 0.000616821385 xtb: 6.6.1 (8d0f1dd)
N           -1.52128974576577       -3.42358083481444       -1.29836104700778
C           -1.42964563725704       -2.33073396703330       -0.95285513810298
C           -1.31364274616262       -0.99453994387094       -0.52829961774459
C           -2.38444379995856       -0.15074922616806       -0.79023475400214
N           -2.63712990064396        1.05928253796102       -0.32586041448799
C           -1.74916858721954        1.78844868477694        0.34218834824832
N           -0.42601088682081        1.78172097678473        0.21840466796877
C            0.34977559781000        0.78042903312151       -0.08131801368315
N            1.54094366322401        1.04383800708643       -0.59684097058047
C            2.69290668575952        0.48556511769802       -0.38200885590758
C            2.98244276541272       -0.43641800237177        0.68223517845280
C            2.07613967441994       -1.33294903260492        1.15869585759574
C            0.74159133412265       -1.52394637866911        0.73136980417367
C           -0.06251664506271       -0.62583195717648        0.07933938673432
H            0.30111965627487       -2.48332556890375        0.97449850040439
H            2.43967659761448       -2.06064519591647        1.87413879772870
H            4.00871426393709       -0.49286275579297        1.01658591305534
N            3.71511114678871        0.88052508020543       -1.17179954301426
H            4.61420704508029        0.43920852495086       -1.10822284741632
H            3.51016479882669        1.47290823110015       -1.95724101404662
N           -2.26162427294317        2.75766947152803        1.12792964217808
H           -3.25017868720540        2.93002920823049        1.08174070423201
H           -1.64442892953863        3.45952902301143        1.49537982479157
H           -3.20615307509347       -0.56644185613507       -1.36691922926851
