32
 energy: -58.304308922587 gnorm: 0.000699892423 xtb: 6.6.1 (8d0f1dd)
N            4.57825369044232        1.44549565509350        2.33749605761167
C            3.85411874682997        0.90810890185627        1.62625946236559
C            2.95655014489871        0.26906920313336        0.74686767755999
C            3.24768537876062       -1.00818699156633        0.33796762905439
N            2.69301161760577       -1.64377682461937       -0.70138286542001
C            1.49516241074422       -1.49623788767855       -1.13918050418582
N            1.18499865729416       -1.90711105901392       -2.38472628187297
H            1.90432303301034       -2.32195878702993       -2.95275165808636
H            0.22196914083948       -2.03230121034693       -2.64239229642155
C            0.38871523635820       -0.85839966798897       -0.36914142442258
C           -0.73214665678337       -1.53390507335651       -0.02913694249105
N           -0.86698527759521       -2.88330423774194       -0.34184450112093
H           -0.00180682990748       -3.39825794883552       -0.41466749338839
H           -1.56861928071958       -3.36924094077943        0.19846004625854
C           -1.85742430338425       -0.93195453640978        0.66894150596783
C           -2.61632055602001       -1.80058215862821        1.46918576287798
N           -3.23797026907058       -2.52438302479408        2.11443568815970
C           -2.29579168467371        0.37059811228313        0.54719845105768
N           -3.39373236341337        0.77894977262833        1.23575528904966
H           -3.94121624271996        0.09953697577632        1.73669656446782
H           -3.81063270445826        1.66993631282778        1.02844349384719
C           -1.69755903448541        1.36760955730215       -0.32163727521994
C           -2.56780048235496        2.37383076030337       -0.78097440537907
N           -3.27058218521892        3.19844107417882       -1.16833994797971
C           -0.36840442033533        1.48065841687005       -0.66423826535817
N            0.05372132975177        2.46979981648310       -1.47964596662809
H           -0.59206056842046        3.16663335592327       -1.81358776892323
H            1.03747242221952        2.59889300111156       -1.63826939824821
C            0.66443321353106        0.55805390214503       -0.17704315305177
C            1.83535395640599        1.04855911065221        0.29932153969289
H            1.92381553127305        2.11913553017667        0.44583064587911
H            4.10482003779623       -1.51910861164913        0.75911285424648
