23
 energy: -40.004288270621 gnorm: 0.000607878257 xtb: 6.6.1 (8d0f1dd)
N            4.99009109083086        0.47068979209540       -0.62396278415751
C            3.88662088020888        0.25248756270757       -0.39595810698951
C            2.52729930761802       -0.01382889188867       -0.11536602338385
C            2.05031502631659       -1.26288072935693       -0.46274662493291
C            0.79917596219254       -1.80779179843258       -0.17418699577031
C           -0.33787897853357       -1.15900510982405        0.26429455365961
N           -1.31196522638772       -1.89931183895502        0.83085175913305
C           -2.56581110403346       -1.96394043267679        0.62388121982593
C           -3.30368320947086       -1.18915348349574       -0.31952593145390
C           -2.93083563980741        0.08498778366725       -0.61732566061508
C           -1.77222427228681        0.78780590438410       -0.16474004688622
C           -1.86487807412962        2.19174886506683       -0.30350286940431
N           -1.97617910922676        3.32828112397885       -0.42107847679918
C           -0.55081948208742        0.27496235303169        0.26834801630244
C            0.48168317204645        1.16476635250127        0.71572016081055
C            1.82032552860342        1.02744615186700        0.55354534557482
H            2.44194677306303        1.84112730180422        0.90781746566343
H            0.13178361000325        2.08407501110287        1.16996742611324
H           -3.62994654278292        0.69371952024561       -1.17925886863102
H           -4.26891304166879       -1.55110220283648       -0.63858037964164
H           -3.11480668972517       -2.64809966537706        1.26411801718896
H            0.69837587212460       -2.87937530078590       -0.29000598388352
H            2.76635899343310       -1.93485661112234       -0.92078770732349
