26
 energy: -51.216134089236 gnorm: 0.000582094252 xtb: 6.6.1 (8d0f1dd)
N           -2.07931375867979       -2.36869384771227       -1.59916966265291
C           -1.78002032533743       -1.44966765263340       -0.97538018055401
C           -1.48334387579263       -0.26005804346626       -0.28545834968934
C           -2.54203653403245        0.69954580412293       -0.20935429399576
N           -2.66168357655322        1.66332571781532        0.69736104175901
C           -1.68006113346461        2.08533358708361        1.46125276781840
N           -0.40459748955721        2.09222036956080        1.21225833543543
C            0.27518570749724        1.33988484617239        0.37388114975171
N            1.32671296463129        1.82422996088101       -0.23346842913515
C            2.37290500874550        1.14365395047482       -0.67031273220301
N            2.87981724213475        0.02854840172192       -0.14642564688081
C            2.17844613113565       -0.92097327219381        0.43988499010532
N            2.89858172454005       -1.87969127883038        1.04928267327001
H            3.90074034014259       -1.83120827216890        0.98727585517366
H            2.45438451171250       -2.72315927480113        1.37128673624492
C            0.75234187285829       -1.09420341181302        0.36788571857184
C            0.27593829725211       -2.39350554932567        0.61566409879734
N           -0.04186424376421       -3.46472596147285        0.88954604220242
C           -0.16242424575895       -0.05822008731464        0.15650186161329
N            3.10301283778011        1.72025507517892       -1.64183005889260
H            2.86929606990689        2.65426830845847       -1.92859632704253
H            4.00946174626938        1.34131750365367       -1.85034992175810
H           -1.98675752221174        2.61845026944593        2.35539915797135
N           -3.60349534182755        0.55013729858730       -1.02533911271788
H           -4.40539221027099        1.13298948401023       -0.85705781236205
H           -3.69593611625664       -0.27351470833597       -1.59641841703018
