26
 energy: -51.992146563900 gnorm: 0.000916171062 xtb: 6.6.1 (8d0f1dd)
N            2.98146627530690        1.75673055111341        1.92682677920577
C            2.03442026262274        1.71538626489534        1.28003370611117
C            0.81778805673333        1.67181543390116        0.56509318763151
C            0.10298168739105        2.85185512161321        0.45268027195632
N           -0.91565236987400        3.11539378271264       -0.34462364070873
C           -1.76652810987668        2.27616580021875       -0.85946254659353
C           -1.98882859264919        0.93722921617162       -0.49657121699811
C           -3.23036621853521        0.36112383006921       -0.84157513417793
N           -4.24062066625137       -0.09528050544694       -1.13748611456315
C           -1.04854299356074        0.06969834695545        0.10266083385883
N           -1.48539887328895       -1.05034937953153        0.63406748437440
C           -0.86867731227648       -2.19749900790255        0.80904843491695
N            0.08406365576456       -2.70993145238779        0.01334528578297
C            1.00129501262549       -1.98299851242995       -0.57051578010250
N            1.80748536221293       -2.61496856869563       -1.43266094242291
H            2.62473836652452       -2.16090481400344       -1.80583925529999
H            1.66883293356934       -3.60044228058749       -1.57920714981667
C            1.29846919183140       -0.58526429236258       -0.27892153826449
C            2.62653760583144       -0.20100539483409       -0.55463945603713
N            3.70512144305367        0.03459815345731       -0.87419227591177
C            0.38351919917803        0.38195061100734        0.10214665168620
N           -1.33920748271754       -3.01044574849019        1.76346537954399
H           -2.16524252174107       -2.74159463174786        2.26914334343647
H           -1.01271954313311       -3.95995368764167        1.79647437104758
H           -2.46006504077368        2.71969397513488       -1.56756961282606
H            0.48873680183198        3.72380989431033        0.97139562377094
