26
 energy: -42.372349116026 gnorm: 0.000676203180 xtb: 6.6.1 (8d0f1dd)
N           -1.31237745137205       -3.41115371382231        1.44738297386974
C           -1.31337408992620       -2.35785407306112        0.98466763187386
C           -1.31900861253376       -1.06211717605527        0.43541238218637
C           -2.51545204816404       -0.39756323832083        0.44744765810085
N           -2.84989265950368        0.77985866592232       -0.08301393518930
C           -1.99850518052264        1.74231995458263       -0.33687880074637
C           -0.61519116210688        1.82208824812855        0.02562151923262
C            0.29892281235385        0.80921007114669        0.13172681367580
C            1.62675705462093        1.16381700576223        0.55456758627589
C            2.83212159502205        0.61213441979866        0.23527015868461
C            3.05175450451277       -0.47607818258640       -0.67911828573516
C            2.14275704874987       -1.39337784834152       -1.07066754084445
C            0.79567103307084       -1.52271490169493       -0.63779332920082
C           -0.02753319405861       -0.59475787940789       -0.07769599826717
H            0.36507794482636       -2.50404270606109       -0.79922002993500
H            2.48881386319665       -2.18246254039224       -1.72722319909395
H            4.06861773949801       -0.57428454653371       -1.03727205649828
N            3.97786598617274        1.21497077668192        0.70056171863614
H            4.82959611350556        0.68067468235311        0.67499806366337
H            3.88719402124366        1.85322562894133        1.47323985188912
H            1.66700499590685        2.05013677001586        1.18001124425069
H           -0.23166053525916        2.83066168350650        0.13023917549123
N           -2.53375775285954        2.83683479407725       -0.92598043771406
H           -1.99094379204240        3.66513861618800       -1.08357870965747
H           -3.51603748428883        2.83100693511189       -1.13540768339809
H           -3.36732424344042       -0.92141772863593        0.87265198984992
