26
 energy: -47.189403903969 gnorm: 0.000562605934 xtb: 6.6.1 (8d0f1dd)
N           -5.32934626414243        0.13994191502553       -1.19097359636653
C           -4.24517712220482       -0.02210020796431       -0.84003157494530
C           -2.92518750861678       -0.16958942600023       -0.39090504790410
C           -2.23301706570485       -1.33296613923776       -0.68294786776374
C           -0.97775705278778       -1.72612917950469       -0.23349706136115
C            0.01910687698153       -0.93825338367294        0.33406730621120
N            1.04437878338605       -1.53883420058104        0.92959654476344
C            2.29625231059298       -1.22805661185377        0.98390724340784
C            2.98015940314800       -0.27317997119942        0.21067600137149
C            4.37531687555589       -0.39222065949822        0.11680584590052
N            5.51954466722464       -0.47424203051259        0.02389492014627
C            2.36793645397968        0.87325713328940       -0.36313697101911
C            1.03568672668761        1.26484339172275       -0.15978753808323
C           -0.05563556666451        0.52322556303756        0.26804298573606
N           -1.15894595165980        1.18184064290906        0.61409241841539
C           -2.41267663211300        0.86819027570712        0.47977826426943
N           -3.30795938547241        1.62360633619599        1.14451019919844
H           -2.97566146777833        2.39070547617013        1.70203541221745
H           -4.29145105726231        1.52919310429305        0.95739432124931
H            0.80341195272862        2.29065683660898       -0.41966372353155
N            3.16617377131298        1.72564258961098       -1.04420739922322
H            2.81225285335612        2.61359478331836       -1.35241576830092
H            4.15311619912597        1.54234665298664       -1.11500510526296
H            2.89117650500743       -1.85654072273279        1.64006971183140
H           -0.71061785485912       -2.76468467972283       -0.37612030891893
H           -2.78450081392115       -2.06980500079646       -1.25574985374261
