31
 energy: -53.770501960354 gnorm: 0.000824916169 xtb: 6.6.1 (8d0f1dd)
N           -2.68020828609357       -3.49440191182297        1.28205913497219
C           -2.11483857556068       -2.57368835991010        0.88420124774063
C           -1.43989544373845       -1.45289376241415        0.37304208171907
C           -2.11757406642010       -0.25433610484101        0.33827553195253
N           -3.36018288637685       -0.15200282742133        0.89402137788323
H           -3.94205224818232        0.63024672543640        0.64474928366615
H           -3.82077649042294       -0.99927836348491        1.18433989857950
C           -1.62240481980431        0.94044851245853       -0.32406802896615
C           -2.60434466425394        1.81663879334614       -0.81662918100552
N           -3.39991711941693        2.54827608676868       -1.21414102230773
C           -0.30663528820551        1.32209575507540       -0.46757211415377
N            0.01733600838401        2.42605101423161       -1.17877298372660
H           -0.70728243115961        3.01422406049604       -1.55762279390895
H            0.95404938107117        2.78529543949922       -1.11267231197747
C            0.82539662517809        0.57479083646590        0.09267355715164
C            1.78064440908170        1.20521153644059        0.83433568055944
N            2.89602409273075        0.64986769969535        1.39796143381395
C            3.57094731276962       -0.32358360139366        0.89899016929270
C            3.36629692558665       -1.05292459970177       -0.30302248447595
C            2.16001615031775       -1.25536889520427       -0.90298262439933
N            2.05671520052074       -1.88977993135227       -2.09777797602182
H            1.15842619126872       -2.21120962331489       -2.41357564828357
H            2.87887721165597       -2.26379525560793       -2.53882738619862
C            0.88689974909980       -0.83957333006879       -0.28327843169049
C           -0.12705607199464       -1.71335756817588       -0.16606008547520
H            0.05006356692141       -2.74913857532878       -0.43335755313908
H            4.23733488745595       -1.52890713454108       -0.73495080192153
H            4.47238929542750       -0.56311797555193        1.45739570143802
N            1.67309534975034        2.56207823897943        1.15028961537379
H            0.73831891603988        2.89121401610706        1.34661773424834
H            2.33039694087000        2.81295684903512        1.87595315066086
