25
 energy: -47.471993079872 gnorm: 0.000503663838 xtb: 6.6.1 (8d0f1dd)
N           -5.04942927005940       -0.77847224384755       -0.26661184818030
C           -3.90241052640463       -0.69973933798206       -0.29144312079282
C           -2.50597554370648       -0.58049285461933       -0.28544067260752
C           -1.71945584075805       -1.39849391568103       -1.10636753340570
N           -0.45194221181170       -1.64978861890918       -0.97193077342545
C            0.53346464091980       -1.03163493317247       -0.34947739182488
C            1.64392894825470       -1.71601698684951        0.10683887588263
C            2.89544143353749       -1.12979980874508        0.36974923427583
N            3.38712502191601       -0.00960318293867       -0.16149915819246
C            2.74825925005591        0.97840596605010       -0.72659655300105
C            1.39299225762897        1.31416993430347       -0.66672489924897
C            1.00826989398517        2.61948570105862       -1.02994518779860
N            0.69446404257327        3.67941422745927       -1.34026661698981
C            0.38287541139990        0.43630477011060       -0.20464141299023
N           -0.70230959033788        0.89803247817931        0.34060177664171
C           -1.90020558248832        0.39267288949828        0.56058876724022
N           -2.60640786957585        0.94268203857231        1.57009592302586
H           -3.59373168562814        0.75952829687156        1.63626127981749
H           -2.22944302519234        1.75443619091934        2.02954634197779
H            3.40786977300317        1.69928040372750       -1.20232896517883
N            3.79256816484120       -1.81696182142504        1.10908072400628
H            4.73192374243322       -1.46311828612372        1.16442029806813
H            3.59104598471640       -2.74487606862038        1.43466060230167
H            1.54745999713187       -2.78579133323494        0.23365589891078
H           -2.21224934463468       -1.98032973810444       -1.87864259101283
