26
 energy: -46.397937172900 gnorm: 0.000294351589 xtb: 6.6.1 (8d0f1dd)
N           -1.42955477758523       -3.38841289679823        0.56584284553937
C           -1.26613775147978       -2.26556235827548        0.37441904161867
C           -1.10473108417020       -0.88131530770530        0.18550083538809
C           -2.24572769087233       -0.06076380523538        0.40193640775375
C           -2.39901405460231        1.25958295001190       -0.00775553976033
C           -1.45375972836813        2.18745199715875       -0.45661926271350
C           -0.05889805462091        2.05558775720842       -0.41056325985678
C            0.65731845506176        0.90830051064755       -0.13929853287378
N            1.88396907985063        0.98521553232007        0.35577741995240
C            2.87282666414952        0.11975650275890        0.34848904851760
N            3.13872896415236       -0.81949540649184       -0.57909564248391
C            2.14913378544572       -1.29580245954484       -1.29693788006687
N            0.86758212981232       -1.27430383651803       -1.04641266399192
C            0.12741065532890       -0.45907983636232       -0.32830546078255
H            2.43502519051394       -1.90069342367064       -2.15198800740894
N            3.82476757397375        0.27976538531392        1.29585968137722
H            3.79987950292079        1.10142823921845        1.87275601237495
H            4.69046431125504       -0.21327062449214        1.16762925210461
H            0.52040608612040        2.96443077794833       -0.51076416565326
N           -1.93554159631311        3.38859676901728       -0.88974571870336
H           -1.29161923750556        4.14608648709617       -1.03390073410903
H           -2.89760302642460        3.62614777038526       -0.72491112191894
H           -3.41272304699916        1.63957634467371        0.06199400397357
N           -3.32125233380303       -0.66138209719196        0.98442519352773
H           -4.21913064055758       -0.21229930920484        0.93914192382498
H           -3.30592490178447       -1.66000762866785        1.11205848747058
