25
 energy: -42.641142323874 gnorm: 0.000619661533 xtb: 6.6.1 (8d0f1dd)
N            4.68737574917137        0.81328961279130        0.18494191411006
C            3.61867052554934        0.42183064680371        0.01674456103980
C            2.30511781094337       -0.03895929310533       -0.17689893507706
C            2.15713282641750       -1.26505282078873       -0.93687709436825
N            1.23843962221249       -2.14573313354392       -0.86288916277435
C            0.14081079611119       -2.05064042111445       -0.05793230126707
C           -0.54325087083809       -0.93932887664443        0.27249034196582
C           -1.76514373825538       -0.98059264353815        1.09679117724443
N           -2.88802457016391       -0.46373826530113        0.83159864222726
C           -3.19529746225451        0.34533204446258       -0.22341801880372
N           -4.49313433856661        0.22162885101854       -0.65302918138394
H           -4.89989097351566        1.00251361047849       -1.13952151923149
H           -5.10801514445005       -0.29129708604839       -0.04303078491189
C           -2.35931613522314        1.31733867128839       -0.70605067203888
C           -0.97390796764724        1.42422788811163       -0.42631757888338
C           -0.14029621692403        0.43357717876108       -0.00955499343995
C            1.26736729820949        0.73080019177041        0.30208893359934
N            1.50167745368864        1.83385574879569        1.04516070030459
H            2.44521248157730        2.09642619171175        1.27842112465257
H            0.74295591942252        2.44031482941831        1.30183806819593
H           -0.52580161589692        2.38531316184970       -0.65243602481831
H           -2.79575062519612        2.09837210708491       -1.31376278325523
H           -1.69202515650481       -1.48729785924977        2.05654559077595
H           -0.25370341724137       -3.01848052617699        0.22967457472062
H            2.98187410517550       -1.50718311613391       -1.60110242968169
