31
 energy: -52.969233656554 gnorm: 0.000325198213 xtb: 6.6.1 (8d0f1dd)
N            4.86821735255185        0.48068671190985       -0.30338919168702
C            3.77863528059317        0.21633851371201       -0.04013628620892
C            2.44169718770337       -0.07336138709653        0.26985375021751
C            1.45292021723318        0.70832364059786       -0.30074401382209
N            1.75228697315159        1.62723037405803       -1.24255650386002
H            1.04970290012636        2.28986877853280       -1.52129696813085
H            2.70623152732248        1.75717754772688       -1.53837742392665
C            0.05040505469114        0.59594259774898        0.10264660239055
C           -0.71161808430248        1.69119081161444        0.40708672997889
N           -0.11525704164751        2.96139969814506        0.46660584289485
H           -0.67584685538990        3.63546644804056        0.96800467722776
H            0.84257525582607        2.96245282882885        0.78970164149120
C           -2.10700049986756        1.65056498036068        0.70397999646331
C           -3.00517275976794        0.70483518996589        0.29903638188573
N           -2.79096281050746       -0.25793484988022       -0.63932237591425
C           -1.67620071299020       -0.86149804894362       -0.83327910685339
N           -1.52141555351446       -1.61034746204944       -1.94965126560293
H           -0.78882242238873       -2.29846054892947       -1.96630734850558
H           -2.31413165736631       -1.72933180876888       -2.55765557862525
C           -0.47841501372235       -0.76566977083771        0.03783876222011
C            0.08892837796940       -1.86342279596469        0.58610858163841
N            1.21250756830415       -1.89550689227543        1.38198226847154
C            2.21587736749051       -1.11933801889887        1.23915889754564
H            3.05126692803901       -1.32956216822102        1.90270804402957
N           -0.46160100387725       -3.13964316685670        0.39905364656560
H           -1.47244166498600       -3.16020692741558        0.40432728686699
H           -0.06601514596352       -3.79733392665297        1.05728181326299
N           -4.30707449483132        0.72729294399599        0.75835866513302
H           -4.95925503754571        0.21679096434145        0.18494758073241
H           -4.64686302435784        1.60675749021505        1.11172392916959
H           -2.49876987807309        2.48688973309797        1.27065830335424
