31
 energy: -54.571277017947 gnorm: 0.000663247008 xtb: 6.6.1 (8d0f1dd)
N           -4.59675829642367       -1.75887816773769        1.16218281849261
C           -3.64708908992640       -1.27659823294962        0.73121650222338
C           -2.46106482573124       -0.71220681393659        0.21782637664615
C           -2.58634762709455        0.57126716291757       -0.39430973152794
C           -1.60890718279553        1.50096737547238       -0.57285401385417
C           -1.98688754501808        2.73063487804160       -1.15406182932864
N           -2.26750411046168        3.73674468573311       -1.63205196922898
C           -0.22391346103221        1.40832360089660       -0.12432522752787
N            0.36945015635490        2.61214661008511        0.24449410335849
H           -0.09780260353099        3.43596792753666       -0.10647383823102
H            1.37227080166401        2.65419311431451        0.13587263381095
C            0.45201548654059        0.23759833208219       -0.01834894837884
C            1.80674589900150        0.19270782489703        0.56683562126822
N            1.91430078907558        0.66390091778029        1.83479519458350
H            2.81940181051777        0.69227732629039        2.27605141303261
H            1.18370555120908        1.24764691278360        2.20377808331316
C            2.88706839647601       -0.31522495990831       -0.11265591403515
C            4.16039404348094       -0.13514861221893        0.46132551200228
N            5.18937602690805        0.03807645130292        0.94472790544536
C            2.85216241323675       -1.00230948667340       -1.37865364973977
C            1.82589425139542       -1.72657904440613       -1.86700696250537
C            0.56120322582639       -1.93222147412557       -1.22661861433805
C           -0.06458319960882       -1.07860998524275       -0.39082512117056
C           -1.31286823296936       -1.47532248094144        0.27996881592996
N           -1.28726136805411       -2.65314877165153        0.93470885568924
H           -0.48108211641259       -3.24895404063135        0.86454524679885
H           -2.11232703449874       -2.99396234521449        1.40141239356704
H            0.05395623673386       -2.85562915759033       -1.48107843971684
H            1.98421489374713       -2.28020974524625       -2.78236425469961
H            3.79144803780815       -1.01091275103098       -1.91682895752263
H           -3.59414352751869        0.85194482537573       -0.67769081225271
