34
 energy: -56.126862282906 gnorm: 0.000538913746 xtb: 6.6.1 (8d0f1dd)
N           -3.70611251753340       -1.83792195549290        1.89110444515075
C           -2.99507185513524       -1.21335143777715        1.23031730024820
C           -2.11919675466248       -0.45233485997176        0.44978742412402
C           -2.51111171557771        0.81914077845280        0.07740599169770
C           -1.74723261188883        1.72484747851769       -0.72133363124411
C           -0.39350701579139        1.80733688498104       -0.82235640993661
N            0.17195992336906        2.81115253878385       -1.56606967470548
H            1.15917577410190        2.74850566811389       -1.74566370729315
H           -0.39203876984508        3.26820835773911       -2.26309061758347
C            0.53217806886528        0.91457395644055       -0.12278427850426
C            1.64747812215181        1.36272569109071        0.52828861972745
N            1.88270600167799        2.73599489723564        0.67550928626716
H            2.48647286614970        2.95742138850264        1.45353578912089
H            1.05114955904104        3.30838671030849        0.65704552787663
C            2.63824375474427        0.51083771796745        1.11267069354485
C            2.96689117099915       -0.75067138365223        0.71502372821121
N            2.54615096262142       -1.36544867569444       -0.42712256710125
C            1.37833476756374       -1.21589155685682       -0.93522638608887
N            1.14521276498708       -1.66614193443896       -2.19506709038774
H            1.87213401153703       -2.19837571762442       -2.64403389472849
H            0.19163265392166       -1.85037944741051       -2.45625334913270
C            0.24394225395605       -0.51089824542317       -0.29033619389444
C           -0.92167889858401       -1.13304539154895       -0.03153782536258
N           -1.06800751201648       -2.50855572901985       -0.27752432985636
H           -1.84168269612442       -2.92110246762301        0.22650422282336
H           -0.21540158115394       -3.03754648647399       -0.15158287275785
N            3.88971626384657       -1.50220313338142        1.42290146939817
H            4.30665540379305       -2.24635237012897        0.88591976257836
H            4.53751168867587       -0.98500437827231        1.99563606146302
H            3.23313281484952        0.94599430487165        1.90720352360199
H           -2.32920165062881        2.48283076285258       -1.23376499063980
N           -3.78527760351998        1.23425582788537        0.37427931930354
H           -3.98107979964252        2.21999962661600        0.35411743942686
H           -4.31383555684748        0.68235420082940        1.03029787385131
