24
 energy: -43.733550751009 gnorm: 0.000877444440 xtb: 6.6.1 (8d0f1dd)
N           -4.82319871483925       -1.05412037620935        0.16215523534474
C           -3.70912170630201       -0.76978095238627        0.17670175376326
C           -2.34954031859773       -0.39713191701107        0.18913509496673
C           -2.05276556199479        0.92393195288208       -0.26305004425440
C           -0.82441266552700        1.56849113475500       -0.10710471414599
C            0.40762675776551        1.06468916234590        0.28460619210247
N            1.28602443096025        1.93262487919472        0.78716403643574
C            2.56466515942886        2.02882112663596        0.71257659500807
N            3.39139346397737        1.43686074646778       -0.14908707021782
C            3.13003537557294        0.23247414122413       -0.59398778987434
C            2.08504403785183       -0.64688637644995       -0.25153791400540
C            2.30562492132923       -1.98877772168323       -0.63181104553167
N            2.51611399680416       -3.07341835042317       -0.94512530193914
C            0.78915054649616       -0.33954278957748        0.25372895461424
C           -0.07810840634578       -1.37555095980397        0.61391290597959
C           -1.45819862947430       -1.36452762575644        0.64683914540006
H           -1.92564171749070       -2.28396982098024        0.98070328877827
H            0.39100007225999       -2.32561250907293        0.83804874437189
H            3.90526966479741       -0.17588871343890       -1.23663795566506
H            3.02811420619998        2.74944171796286        1.37999178872348
H           -0.83438202788461        2.64141490365402       -0.26071019553646
N           -3.07354947232986        1.64240216308800       -0.77356719468652
H           -4.00138449298967        1.25379313020461       -0.81071785293905
H           -2.93549980733342        2.60055703986075       -1.04219950812578
