27
 energy: -46.903507855058 gnorm: 0.000756685679 xtb: 6.6.1 (8d0f1dd)
N           -2.59367848532291       -3.09078198465648        0.54928248452778
C           -1.63880202432317       -2.45921691097141        0.45045464454731
C           -0.45677628064762       -1.69539637346004        0.35280139146765
C            0.74805411621080       -2.38010936868999        0.62915113030813
C            2.02588819496472       -2.00182259858494        0.36329016435058
C            2.48492293119050       -0.77764155842016       -0.20424501658076
C            1.75929332955644        0.41082486244012       -0.28140746396275
C            2.44625571119330        1.53674428150500       -0.76645753505514
N            3.02900884540686        2.44041344459806       -1.17961948604712
C            0.40152154692846        0.66400290299557        0.13367456385488
C            0.08146039179371        1.89953551715583        0.64934647063904
C           -1.18162495195107        2.42412843118745        1.01088671191698
C           -2.40934912977948        2.04192741506055        0.57061656318864
C           -2.57281136264659        1.01155933689434       -0.41922710488346
N           -1.80329907659892       -0.02237361990072       -0.53495934485888
C           -0.63256464646901       -0.35505214311027       -0.00174929690522
N           -3.61220688786322        1.10526920959760       -1.27587089637212
H           -3.77977898696788        0.34220305133536       -1.90835349121101
H           -4.33763415223026        1.78125637465143       -1.12173558068726
H           -3.28388586440136        2.60698964231425        0.85766244845960
H           -1.14322713904892        3.29369515161136        1.65607020383568
H            0.92015091403149        2.54829170391335        0.87076839662251
N            3.77096777764402       -0.77433843770094       -0.63356332613137
H            4.17847595363268        0.06541142652301       -1.00809921100967
H            4.33919064260900       -1.59662365548746       -0.54298928999716
H            2.80408874317826       -2.72946002108277        0.55586199910629
H            0.61231506072414       -3.38007849020535        1.02500682490448
