23
 energy: -39.220232225902 gnorm: 0.000285852615 xtb: 6.6.1 (8d0f1dd)
N           -5.18465182371599       -0.47496503131539       -0.26537813887600
C           -4.04895682882820       -0.32380122651050       -0.17842525532291
C           -2.65527333195345       -0.13856135606608       -0.07373660858805
C           -1.93198734951235       -1.16436244189213        0.56879486805684
C           -0.58107432019151       -1.32082199470900        0.65986668089838
C            0.47251894836605       -0.48654118436392        0.18747160560583
N            1.60357990828973       -1.11134928819946       -0.02848311073233
C            2.84656191225063       -0.68042905730903       -0.15537216677363
N            3.40904313619058        0.37736955215590        0.43738331048547
C            2.70006744319566        1.46701535120529        0.67711616776543
C            1.39855493414795        1.78710053544431        0.33439813447268
C            0.32325681848562        0.94121085149922       -0.02528207894418
C           -0.85561893902654        1.54478208023411       -0.49488388514471
C           -2.13968204370304        1.05331272070377       -0.58594254727118
H           -2.86950121948338        1.71433457742892       -1.03992941814329
H           -0.72935671456216        2.57089628111988       -0.82116379451388
H            1.13450139274026        2.83262371170299        0.43867470074241
H            3.29545600311755        2.25896411310225        1.12187949648174
N            3.68524963054274       -1.47816904539498       -0.83793711254315
H            4.66591920608046       -1.26204350306733       -0.82952851618922
H            3.35429620412016       -2.35041127140735       -1.20925343750955
H           -0.21979877946361       -2.24116444355755        1.10088351673827
H           -2.53896521308651       -1.96081489400405        0.98451505060527
