30
 energy: -50.057751408526 gnorm: 0.000892635126 xtb: 6.6.1 (8d0f1dd)
N           -1.39380846273082       -3.70431189577029       -1.10541255501108
C           -1.54026284369625       -2.61633153982490       -0.75849675031067
C           -1.78245275568397       -1.28502397781985       -0.36264376201360
C           -3.14182006869866       -0.97675640292881       -0.33847830695751
C           -3.77328858124798        0.18628866421186        0.02240284021762
C           -3.14862045998502        1.41698467711943        0.28411070980333
C           -1.79466806974488        1.71386695687231        0.14546402707476
C           -0.64291315697623        0.94199263692399       -0.07350218795020
C            0.51365934029455        1.70581835836855       -0.33449791277121
C            1.87135981863307        1.43135196650187       -0.35109730865220
C            2.51539763696510        0.23623588352714        0.07511526866843
C            3.91284744874384        0.25696232342499        0.14623640200839
N            5.06553044880424        0.27412697170170        0.20072968819411
C            1.86821239415141       -0.96667119407689        0.41607318170617
C            0.50540732314121       -1.25835963530627        0.27605446185020
C           -0.61892502316560       -0.50434771984763       -0.04102045304988
H            0.29588833008305       -2.31051026596505        0.43837770056493
N            2.64706408035581       -1.97415731474429        0.88686957810709
H            2.25957998483615       -2.89651221471261        0.98291910774834
H            3.64895800555843       -1.87998283651301        0.86941705397493
N            2.69469769772657        2.43661294064522       -0.75023863327570
H            3.69235561115617        2.31975286991247       -0.71756518509061
H            2.31653935508710        3.32751111292965       -1.01403592503444
H            0.29855241709578        2.74326042257997       -0.57138305472047
H           -1.58666077068636        2.77349010783281        0.25890983721569
N           -3.97449979830104        2.46037361894472        0.59152640325182
H           -4.93155658642620        2.27209006336608        0.83093900256676
H           -3.58025119402060        3.32851018169529        0.90768070899776
H           -4.85389322813853        0.17375014224469        0.07076447241165
H           -3.79028412453275       -1.80635259149612       -0.59938459392911
