28
 energy: -45.801432687073 gnorm: 0.000522956484 xtb: 6.6.1 (8d0f1dd)
N            4.44486723997754        0.75400157513472        1.52437736346958
C            3.48734830155312        0.36230779999635        1.02395020641491
C            2.31393123326202       -0.10960463735088        0.40196158967429
C            1.36087886536818        0.90532118075230        0.01696145725641
C            0.04410009692979        0.72680349832144       -0.18863347272125
C           -0.79543198329525        1.84405332362033       -0.66750114742566
N           -0.30490129341350        2.53682901757878       -1.72909009696265
H            0.52795334817825        2.21383476524440       -2.18788441371230
H           -0.88667418975083        3.20330683462617       -2.20606257605574
C           -1.94053324592579        2.21903272065251       -0.03576690441315
C           -2.54869289651442        1.52771350168737        1.04866239189782
N           -2.51353641061435        0.27929476462816        1.35247089300570
C           -1.82993497379179       -0.67846499587263        0.65755579351409
N           -2.44843521151529       -1.93583204376297        0.75906661767484
H           -3.17695190534670       -1.90737105078871        1.46053372903803
H           -1.80648780531770       -2.70081442522797        0.92077197940464
C           -0.67046640280479       -0.53539652514928       -0.04040770295025
C           -0.07848714918319       -1.68029382264647       -0.76367239822381
N           -0.92365300222996       -2.29023330522643       -1.64614793830633
H           -1.91215260587480       -2.19617125419455       -1.47744782827923
H           -0.61537105913002       -3.13496847144638       -2.09888985763105
C            1.20783252551403       -2.09692999288749       -0.60914055500562
C            2.23699766922595       -1.44145186388988        0.11157657943736
H            3.09415826509815       -2.05121722680919        0.37236857717245
H            1.48436443228480       -3.03474242430228       -1.07713381415091
H           -3.21349046778237        2.11413575101069        1.67810328859223
H           -2.41452543106399        3.14137448549157       -0.34704272537847
H            1.76524721096256        1.90657772671019       -0.07501658643580
