31
 energy: -59.394082585716 gnorm: 0.000760486131 xtb: 6.6.1 (8d0f1dd)
N           -0.21278810079974       -3.09092639949568        2.34606375633343
C           -0.50295648355511       -2.28391647389424        1.58284918702327
C           -0.88235451326912       -1.21981151207770        0.73182547751292
C           -2.23559619055753       -0.98836721747584        0.62804757962419
C           -2.89903091063242       -0.00845727566921       -0.11380195528957
C           -4.29110114499379       -0.16595263231820       -0.26220207431110
N           -5.42671609180363       -0.27467837218380       -0.40353497062699
C           -2.32379989791191        1.17579627279598       -0.63280409802214
C           -1.00067151762962        1.59843913688057       -0.41946992224004
C            0.14293501051368        0.92240924839250       -0.03023636176635
C            0.21497982634383       -0.52187560153292        0.10876591281733
C            1.30323789732711       -1.28028243804490       -0.29159190303830
C            1.14478895792457       -2.67538634961979       -0.42387911937224
N            1.08393067973959       -3.80025706344350       -0.65411354519751
C            2.59284100068336       -0.78721010573002       -0.73327856792458
N            3.18184425080896        0.29869952626115       -0.31599301510213
C            2.63559893726584        1.32062412518411        0.34687959611786
C            1.28396416994834        1.71871723014545        0.30907897628318
C            1.03360934042631        3.04539817950973        0.69458511875659
N            0.86964843400125        4.13961277849796        1.01318436543739
N            3.53235248704667        2.10066842077648        0.97975643363249
H            4.50749692489197        1.87473898427982        0.89257515811125
H            3.25029055470564        2.96779156768281        1.40385922369333
N            3.30081899587276       -1.56160729266760       -1.57115595628758
H            4.24095260318107       -1.28447025733787       -1.79608317516198
H            2.98218461109161       -2.48616307333198       -1.80888127551907
H           -0.84228064876565        2.64772894364606       -0.64442011154151
N           -3.13425535594378        2.02522013796493       -1.30309062409055
H           -2.80427353481452        2.93675771494511       -1.56696192674790
H           -4.11752338697681        1.82519266485162       -1.38256515134846
H           -2.87342485751256       -1.70262759408502        1.13700354705201
