28
 energy: -50.641562656622 gnorm: 0.000500515568 xtb: 6.6.1 (8d0f1dd)
N           -4.57352177700881       -1.33843184039740       -0.32830216483208
C           -3.47203400280875       -1.01711995525904       -0.21646494064128
C           -2.12941272089161       -0.64711549926305       -0.07443987095521
C           -1.75963266345296        0.66485515886658       -0.45109398000377
N           -2.70473868680734        1.41983369862570       -1.06302455578221
H           -3.64377733005290        1.06723381314596       -1.14321448738805
H           -2.54257595938252        2.40357623359696       -1.19927902035677
C           -0.52464745290646        1.28598428565091       -0.14617498386945
C           -0.48667681728944        2.68118460342114       -0.31443999636493
N           -0.48250968174342        3.82451578919170       -0.45365681603976
C            0.69393689740022        0.68601787725639        0.26450497179311
C            0.90891054829034       -0.74969449537814        0.03229955067341
N            1.99837950865729       -1.18138141146235       -0.56182356363859
C            3.23752320964924       -0.76815039565299       -0.51569846262565
C            3.76721423191645        0.10447331035822        0.47523693003560
C            3.02879526948545        1.07499006322729        1.10173430927555
C            1.69003406972786        1.42431050319250        0.88659247036481
H            1.39071307859414        2.39021828660747        1.27522593649166
H            3.57364999755491        1.73292562589281        1.76793655649946
H            4.83264518711638        0.06486860057752        0.65293178811899
N            4.07636253416264       -1.28740832383144       -1.44068269521730
H            3.72020796253254       -1.97036298250430       -2.08495474672448
H            5.06574143236261       -1.13553771200090       -1.37632611616445
N            0.03698601916604       -1.65633442906125        0.40005990921738
C           -1.26570685620226       -1.59381716317351        0.54552313683537
N           -1.82128730151114       -2.59077461490725        1.26985717187527
H           -1.22318397865742       -3.33920176200831        1.57333662514790
H           -2.81696127850959       -2.73132011490643        1.24888494497291
