25
 energy: -42.655933551458 gnorm: 0.000759812255 xtb: 6.6.1 (8d0f1dd)
N           -2.13885586478426       -2.73069317369810       -1.50770764358529
C           -1.95952389364640       -1.71540072065280       -0.99727580996219
C           -1.75402686014991       -0.47358897797466       -0.36564213176512
C           -0.41456767872902       -0.26078091232186        0.14306553036753
C            0.38692861620260       -1.34349284609861        0.38282030513186
C            1.80157310044726       -1.41328305674990        0.46962193664244
N            2.30662394208739       -2.59316145123109        0.92158906230927
H            3.28597414008209       -2.78976875296493        0.81425741156965
H            1.68834971796783       -3.37525092900724        1.04774704885172
C            2.69659772500183       -0.44589249380547        0.04676098836625
C            2.43967440203443        0.87275726383206       -0.36615104730484
N            3.49263004483903        1.55625832071197       -0.88999530964650
H            3.40464461390605        2.53909415171004       -1.07372152946140
H            4.41487788893894        1.16049239052480       -0.86678450124258
C            1.25067253448886        1.58382621219755       -0.20151517207163
C            0.01013289225415        1.13465010402587        0.23985131705287
N           -0.78963787414352        2.02203690656220        0.81064277936216
C           -2.07940607213951        2.10859684787051        0.92214293885145
N           -3.02506539701301        1.55773966933665        0.18555822518623
C           -2.81599949677883        0.41722926532041       -0.45390070320561
H           -3.66881679780175        0.09179454807687       -1.04374087607930
H           -2.42796138516434        2.82852948890290        1.65846823419980
H            1.31090604467945        2.65508079380686       -0.35104644120153
H            3.73809623762027       -0.74554302590149        0.02081750404495
H           -0.11466777369919       -2.30250393937117        0.45346922759100
