25
 energy: -37.848504705970 gnorm: 0.000321037770 xtb: 6.6.1 (8d0f1dd)
N           -1.69818186334834       -1.89907510035451        1.41198234743924
C           -1.59790460382049       -0.86995457046918        0.50356209637701
C           -2.69183968617300       -0.15916034845083        0.13371424469609
C           -2.75684246261903        0.92827717468704       -0.78858939244727
C           -1.76545395326903        1.78565559940553       -1.11727416110152
C           -0.43810887065550        1.76305686037234       -0.58105364296242
C            0.21291310153940        0.68063454575271       -0.11843741861196
C            1.55811361148340        0.78914080162403        0.51872736731542
N            2.62932033536222        0.23430953531642        0.09915928212800
C            2.70469646704439       -0.75044578611822       -0.82725890434525
C            1.78727887366283       -1.72480606092192       -1.04185204788032
C            0.46899464704804       -1.75821064243999       -0.49736573975093
C           -0.26351288721311       -0.69028912310164       -0.09494903947764
H           -0.01848051327119       -2.72572734522423       -0.48391480184878
H            2.08412132324877       -2.57912881382761       -1.63534188760051
H            3.67938997761626       -0.81141387625445       -1.29593587777583
N            1.58694348288467        1.50580471803120        1.67656142666492
H            2.48795472998519        1.65110124361557        2.10145205799076
H            0.88344474765231        2.20964399876442        1.82124012239724
H            0.08863613027290        2.71141673121738       -0.57866750152311
H           -2.00122358666918        2.62113941343474       -1.76336155655757
H           -3.74390647464091        1.12774527002319       -1.18826228458657
H           -3.64115169793282       -0.47288803577516        0.55308667123431
H           -0.83778166805959       -2.26361858680344        1.78538994194967
H           -2.48547691692717       -1.89393225110440        2.03982409617622
