26
 energy: -47.185457442286 gnorm: 0.000823404549 xtb: 6.6.1 (8d0f1dd)
N           -4.52058603123766       -0.26501256499187        0.17681223008128
C           -3.37021558138483       -0.28894399591363        0.11698101870826
C           -1.96621291373032       -0.32415406662057        0.04984236162248
C           -1.35152249837223        0.90524080745059       -0.29700430596177
N           -2.16036581779145        1.90605058375337       -0.71313569392352
H           -1.78061458771855        2.83114382651960       -0.82909794490350
H           -3.15986710454842        1.79224213199748       -0.68698044527208
C            0.01770663290346        1.21872450684710       -0.13415343003559
C            0.38661050081808        2.57474636557994       -0.20640195576892
N            0.66974076764256        3.68572025865880       -0.29418403397993
C            1.03258382765204        0.30759330091570        0.19890439902352
N            2.05317828292110        0.63761960587331        0.92583528623158
C            3.27878321519328        0.18852016084010        1.04259285641751
C            3.97062999683991       -0.49883239971650        0.05661557816207
C            3.28345132266791       -1.12340838479835       -0.98514060944849
N            2.02818250737659       -1.47470990466948       -0.96666940794898
C            0.99346578066015       -1.11541562914995       -0.24897599562098
C           -0.05673244644106       -1.96205625064067        0.03611599795019
C           -1.38003528071328       -1.59322423810838        0.30445365107547
N           -2.21120332287319       -2.57593923493076        0.72709860996913
H           -1.87331759471538       -3.51923322285533        0.79312354601631
H           -3.20259022358696       -2.41507057031857        0.78502067316027
H            0.14724690957683       -3.02339464318418       -0.01670091739242
H            3.82610467766613       -1.46823093934360       -1.85907409037995
H            5.04776956253507       -0.54102297863014        0.08629346242804
H            3.78590225735962        0.52113019713629        1.94111635968928
