28
 energy: -51.412930423407 gnorm: 0.000975441100 xtb: 6.6.1 (8d0f1dd)
N           -0.11302719319122        3.43458858063989        1.24777092508406
C            0.14119527955683        2.39966993953545        0.82288105361707
C            0.50663307934286        1.08710759285229        0.42793328034829
C            1.86333216759003        0.78712526360641        0.68467457558429
C            2.59151890019044       -0.28673515870202        0.25636251866481
C            3.97276836557545       -0.27940011629741        0.54041847505789
N            5.10037251124244       -0.29806908127888        0.76164470842230
C            2.09117431501416       -1.43812199199182       -0.47265037669284
C            0.77817771469590       -1.81767464014964       -0.54771698433998
C           -0.42833818548342       -1.17691758518308       -0.12863406242727
C           -1.50411342488424       -1.99655663415599        0.14273755664407
C           -2.83492548140651       -1.63873851975872        0.49167176217489
N           -3.51749492602308       -0.58431647270896        0.08103229912943
C           -3.00204159559678        0.45451403213138       -0.54430143227845
C           -1.69820060865372        0.91721112120351       -0.55965582369162
C           -1.49193595080332        2.14406228770539       -1.23000323354380
N           -1.34700108918721        3.09083280184205       -1.86322245129671
C           -0.51396576110333        0.27037772769374       -0.05263707291544
H           -3.74724672693760        1.08034805491326       -1.02610967340578
N           -3.55635508421207       -2.52755550250799        1.20291249590748
H           -4.51184531380412       -2.30013010397517        1.41765055458714
H           -3.15901357303466       -3.38889078032417        1.52937324235834
H           -1.28987928018101       -3.05774267983005        0.19116586948122
H            0.61307905351908       -2.78758790851116       -1.00456948527469
N            3.03822227646270       -2.22887142784574       -1.03803469184265
H            2.77728053915932       -3.08226469703493       -1.49689014992659
H            4.01416128364079       -2.02743748883178       -0.90715267345738
H            2.40877301500793        1.55920533654539        1.21585165784612
