30
 energy: -49.260887814764 gnorm: 0.000569567110 xtb: 6.6.1 (8d0f1dd)
N           -5.07131108568985        0.05098049569859        0.29366290500148
C           -3.92170836725628        0.03846080573459        0.18212788305589
C           -2.52937039827984        0.02010294598319        0.05173209956823
C           -1.92395557184738        1.18880888978274       -0.50145826988353
N           -2.79090787850721        2.11324695112660       -1.02391994959154
H           -2.44679348438779        3.03767684193036       -1.21619035233725
H           -3.77178654929653        2.02364152705605       -0.81673238028054
C           -0.58247233919508        1.50484910830788       -0.51971136540456
C            0.56939370597735        0.77129705574275       -0.15503077731979
C            1.70725650653518        1.50625840892014        0.14939025580701
C            3.02332419466702        1.10888943420032        0.46248754143323
N            3.85274142061161        2.10594186579373        0.92340192435359
H            3.42203638098880        2.92547977183504        1.31683809572139
H            4.72400043574933        1.82663160748239        1.34122550401360
C            3.59461109883838       -0.12491621771940        0.20401896759908
C            2.91711427353226       -1.17571058536605       -0.44393887734014
N            1.63168224936149       -1.40435196323261       -0.46658921111560
C            0.57235455004605       -0.68590821495445       -0.09360543270219
C           -0.51746200700667       -1.45710284978937        0.28966546042137
C           -1.86943008358633       -1.15396113484170        0.46399780264614
N           -2.63681211544863       -2.12431055073477        1.03888135825112
H           -3.63901956023581       -2.03969114104578        1.01157074991490
H           -2.24340368571065       -3.03815027371663        1.17514204510652
H           -0.25998713360115       -2.49685072545123        0.45788770331134
N            3.67356865471449       -2.17385754779358       -0.99934279747505
H            4.62679064288961       -1.97756446977253       -1.24761832501777
H            3.17503656052345       -2.83896170196277       -1.56599582797955
H            4.65420766908826       -0.24614312018618        0.38387330313404
H            1.54891610846141        2.57735917489629        0.22355290676900
H           -0.37438072303782        2.52290543847522       -0.83523658756093
