29
 energy: -55.165254076890 gnorm: 0.000781264483 xtb: 6.6.1 (8d0f1dd)
N            5.54349283132239        1.04214291449896       -0.50750651749835
C            4.40432703316468        0.90730245094854       -0.42737918977034
C            3.00904895995452        0.73072609858376       -0.32654908078587
C            2.57794233043268       -0.40660165648686        0.40487241372183
N            3.51918531178514       -1.11963008082342        1.06237666990636
H            4.49157077282753       -0.88047771013634        0.95984084892324
H            3.27468149477204       -1.99930657653841        1.48622574095733
C            1.25711518930571       -0.90535169740617        0.41589154717543
C            1.07392903861795       -2.20424206487975        0.93336609657316
N            0.94677731336683       -3.25636179821187        1.37791724486050
C            0.09064244434702       -0.30774317986149       -0.10376130868711
N           -0.88779759857026       -1.09872484093481       -0.46940022534996
C           -2.17526749023885       -0.91352615254263       -0.67788819148274
N           -2.77539999346594       -1.81488201320102       -1.48440517315197
H           -2.23866770946095       -2.61008473578881       -1.78546206020402
H           -3.77975867763808       -1.86647456156966       -1.50711561330060
C           -2.96218648385815        0.07167975548543       -0.02634038696699
C           -4.34772431861915       -0.08955751161414        0.05613147864170
N           -5.49049093662256       -0.21759524068588        0.12361711260125
C           -2.35536490513810        1.22347824797488        0.53480352107153
N           -1.18047997024373        1.70261567248771        0.17053507323468
C           -0.08045146243830        1.14428466283518       -0.26677363264700
C            0.88919608858204        1.95356486303353       -0.88104440462358
C            2.23947949801937        1.71939409071095       -0.95114968147782
H            2.82274433152499        2.46564430201762       -1.47876772669569
H            0.52394284643945        2.89340707954088       -1.27130909765962
N           -3.05572097052226        1.98296050379987        1.40428504933196
H           -4.02790438733479        1.78574721796133        1.56850316778885
H           -2.67936914571150        2.87455189270386        1.67490333341648
