28
 energy: -46.597354331046 gnorm: 0.000656274351 xtb: 6.6.1 (8d0f1dd)
N           -4.05571229231556       -2.69953852764920        0.01847641594134
C           -3.36741005114577       -1.77664947690271        0.01400515774480
C           -2.55442583103546       -0.62825333753539        0.01050332926659
C           -1.14120694878687       -0.89717972507158        0.00364511301699
C           -0.01960417237323       -0.11881680291212       -0.00142887549611
C            1.19201364972182       -0.90837060249888       -0.00764048860455
C            2.51799616192566       -0.63063095636917       -0.01341257950584
C            3.36881124073205       -1.75862786050281       -0.01909198447434
N            4.07434677004274       -2.66657995915377       -0.02060011734926
C            3.19678139329578        0.66807657900141       -0.01523916669363
C            2.54304736043973        1.85530405996287       -0.01134196020669
C            1.14463095325066        2.12449171655164       -0.00549757481060
C            0.01690350001938        1.35326314665983       -0.00115780442220
C           -1.20275221207713        2.14257078811202        0.00385706186705
C           -2.51594255461762        1.86262423501883        0.00975974501794
C           -3.19681519773583        0.58907627834294        0.01333795755073
N           -4.54958023437270        0.64752950885887        0.01977852518003
H           -5.02543913320593        1.53089067545945        0.02150992314021
H           -5.08883786872761       -0.20151985010000        0.02232120131206
H           -3.19063521434587        2.71127811133687        0.01240341391937
H           -0.99337449796571        3.20702326885574        0.00253567790137
H            0.96112597061509        3.19302010216194       -0.00431475243588
H            3.16852550490371        2.73986038883703       -0.01332264447812
N            4.55924092356574        0.62200712288079       -0.02202052791478
H            5.08655176544236        1.47500975902768       -0.02144762568575
H            5.04605053063461       -0.25576953125954       -0.02231757693029
H            0.98876298683008       -1.97571921860320       -0.00765216115644
H           -0.96536357441358       -1.96784774651054        0.00244095670487
