24
 energy: -43.729710113158 gnorm: 0.000739502585 xtb: 6.6.1 (8d0f1dd)
N           -3.50267788988832       -1.53632952022288        1.60433065489009
C           -2.73832213436078       -0.81939476201147        1.13470543741469
C           -1.79683715717978        0.05423371499069        0.55358195359126
C           -0.62828454346192       -0.58146667301197       -0.04085620592275
C           -0.76166958566298       -1.80937100235884       -0.62534584229379
C            0.28350012533024       -2.58062973215197       -1.20501767468659
N            1.51022401325166       -2.66474574949205       -0.82458863002270
C            2.06800937967317       -1.95111758095875        0.16442730648682
C            1.78459292474360       -0.67005251301891        0.53623133208922
C            2.63828885843520       -0.02951435694971        1.45724294877247
N            3.32855715669329        0.51073835534679        2.19936966862657
C            0.64123307657999        0.13366168652765        0.07823351585880
C            0.80834304426509        1.46460113816023       -0.09575903518104
C           -0.22596295483638        2.41090749758544       -0.45675628222159
N           -1.45960111282218        2.39778300580135       -0.03721417946990
C           -2.06020782058838        1.39935639232830        0.60702794042754
H           -2.95226090110973        1.71464449945635        1.13902274233164
N            0.14433357236772        3.45894682337505       -1.21367364187234
H            1.10394500369863        3.60311241462360       -1.47092846214362
H           -0.54129961778946        4.16244967429215       -1.42809455914260
H            1.81149450729771        1.86491449849519       -0.01662230405791
H            2.92154648399382       -2.44176485428379        0.62064669951601
H            0.01313769147182       -3.24181826863060       -2.02324287560157
H           -1.76717202920552       -2.19167446659228       -0.74968860518608
