29
 energy: -55.159452521200 gnorm: 0.000775697117 xtb: 6.6.1 (8d0f1dd)
N           -5.34386611516539        0.19661795205180       -0.61775091250115
C           -4.20615665415156        0.15297284955965       -0.45379094690051
C           -2.82169995882096        0.16088318342145       -0.22538767098177
C           -2.03311334401736       -0.83920245781398       -0.75394748998957
C           -0.67050436100234       -1.08388283746717       -0.52901763997361
C           -0.21256561757820       -2.30665472432172       -1.07476610405641
N            0.12022664603229       -3.27256425492240       -1.59824388438968
C            0.31893945489393       -0.23357465278965        0.01505999451999
C            0.04155758925194        1.20545736896867        0.09672271062449
N           -1.09277618738851        1.63475267338844        0.63936656425994
C           -2.30434523489769        1.17542515616736        0.66651050552634
N           -3.15764463422340        1.73112141678572        1.55054688689489
H           -2.83478518821312        2.48809684647417        2.12670203458106
H           -4.14006025871232        1.52242046471272        1.50603906083277
C            0.93762630218697        2.15529636901941       -0.35317047087595
C            2.29868440618933        1.95636459352250       -0.66243181615474
N            3.11021416718332        1.04284233102436       -0.15154684101168
C            2.78873823677603       -0.05433832567819        0.50668241529716
C            1.54993536397993       -0.76327449782837        0.43360489723510
C            1.59031290739039       -2.10007347935108        0.87153437043654
N            1.68363312628956       -3.15022390598284        1.33246680529318
N            3.79782518520089       -0.60974453264788        1.20472798481690
H            4.70993205884722       -0.19370393967221        1.13193473415022
H            3.69925828582612       -1.53179912122939        1.59589115887256
N            2.91662200973941        2.87004165973942       -1.43862331769735
H            3.90546202330497        2.78394130503291       -1.59174110394022
H            2.41564275660521        3.64976396879230       -1.82194448297422
H            0.54355777588450        3.15403179963707       -0.48317534842412
H           -2.54347511811117       -1.58814503758827       -1.34966809277103
