19
 energy: -36.332008356762 gnorm: 0.000548122415 xtb: 6.6.1 (8d0f1dd)
N           -1.58625756130952       -3.10076417745398        0.98465261992193
C           -1.43586747738049       -2.01489118729007        0.64599954819174
C           -1.23974123453793       -0.67758987068382        0.24609094748509
C            0.02881122901508       -0.30762194687896       -0.28031715884161
N            0.86422092782442       -1.05506067507518       -0.90167114747231
C            2.17245845760716       -1.04440990080905       -1.02106373951805
C            3.02825084636036       -0.55036950731151       -0.04384258932536
C            2.56210051439157        0.34234668499085        0.92120409018101
N            1.52610551800637        1.12652098006325        0.77553571430648
C            0.48558442729393        1.10330039645787        0.00747514353707
N           -0.12978568306917        2.14683220456787       -0.49160809192192
C           -1.42326673570575        2.14542731300133       -0.73443679042494
N           -2.35383157443262        1.44733761589886       -0.13620712128163
C           -2.24223221162517        0.27090518059335        0.44577938137205
H           -3.10984982859710       -0.02078212168655        1.02922091161786
H           -1.77770366918803        2.92726507626926       -1.39718129977748
H            3.12424273033080        0.51007038510368        1.83211116936736
H            4.04655999085011       -0.90229907239511        0.00166852488108
H            2.55067024146638       -1.61021378816199       -1.86277258919975
