24
 energy: -49.311241402701 gnorm: 0.000972395938 xtb: 6.6.1 (8d0f1dd)
N            5.07481997943821        0.75123434951317        0.67033557760213
C            3.94179182048044        0.65951356461809        0.52744443919558
C            2.54206043247951        0.54305316758289        0.36158393978432
C            1.71439830754762        1.40356112836625        1.06522677971398
N            0.46762225222971        1.65357203007827        0.72683903586896
C           -0.46705865707089        0.97006818535948        0.18982257882878
C           -1.60374314276742        1.62584540496545       -0.44267373652702
C           -1.33573174803291        2.80757055535351       -1.16588257959037
N           -1.10455189882901        3.75352765644814       -1.77072538591423
C           -2.87345947477403        1.12025471596963       -0.36415685244514
N           -3.29943661113957        0.19311057568308        0.49792738356523
C           -2.69181956627552       -0.83106941846043        0.96267913815451
C           -1.41785438702106       -1.33028976183875        0.51057644286135
C           -1.17875580145638       -2.71810961155016        0.64408743422242
N           -1.00070463748138       -3.83782448616924        0.80998364549946
C           -0.40985134653614       -0.49731725070516        0.08847723495241
C            0.78685998892378       -0.96806969439901       -0.57692784705716
C            0.55633925698477       -2.02699569717221       -1.49235063973408
N            0.36606328782691       -2.85890402429647       -2.25671887337686
C            2.06408740465502       -0.46745407669586       -0.50990479605924
H            2.80933143297488       -0.97537242728904       -1.11091478756506
H           -3.23036416903559       -1.41066634460343        1.70486997394327
H           -3.67062756953379        1.59698764895553       -0.92308055677279
H            2.11394236581330        2.04050879388667        1.84394080464979
