28
 energy: -50.635151627794 gnorm: 0.000872581700 xtb: 6.6.1 (8d0f1dd)
N           -2.10289661994126       -3.40386256319391        1.45288204358051
C           -1.92741538005581       -2.34027882595153        1.05091428392552
C           -1.72857370324178       -1.03820684069629        0.55254493825568
C           -2.79615612192492       -0.16668911788884        0.75123736598689
N           -3.02850802471066        1.02749714075372        0.25020723991907
C           -2.11233404481572        1.66939981200106       -0.48033170444355
N           -0.79930988856591        1.58997255170468       -0.39100947473025
C            0.00478294519968        0.62633329258802       -0.00876172743661
C           -0.41773534802442       -0.77138917216019        0.01279369554987
C            0.36729411839498       -1.83339367622431       -0.36191216597352
C            1.76244251882151       -1.90128433447879       -0.58327411463976
C            2.70746303070833       -0.96479787849664       -0.18943645696830
C            2.51437081389584        0.30726353898222        0.35940654849729
C            1.30418946519714        1.03596721488490        0.37513519785394
C            1.39748168940714        2.39715239957001        0.72639228808246
N            1.51540160200896        3.50063707839886        1.02993695191463
N            3.61329011334228        0.93384674864662        0.85025553908501
H            4.52370605755288        0.53294129198765        0.71367734885923
H            3.55069126073211        1.89743707496824        1.13352078791010
H            3.74255866564778       -1.27256387540308       -0.28439951778710
N            2.21431973367596       -3.04730713525656       -1.16065204743165
H            1.58198251437772       -3.81985984926502       -1.27678030556928
H            3.19848567950353       -3.25090447571362       -1.16065377323642
H           -0.14728344237090       -2.78255474300069       -0.46364702623307
N           -2.59185458406147        2.60533222765975       -1.32490519453635
H           -3.56608316961757        2.84124181209192       -1.25520416393376
H           -1.94728636182413        3.26012077365682       -1.73144269834486
H           -3.62828654680093       -0.55431308817031        1.33280541214250
