31
 energy: -54.581092169113 gnorm: 0.000488448689 xtb: 6.6.1 (8d0f1dd)
N           -1.84486660492858       -2.60896564097630       -1.37027538143781
C           -1.82531221697385       -1.59923227245474       -0.81852030854915
C           -1.85728598386438       -0.29398409935996       -0.27585171853534
C           -3.14356233655697        0.33812646407889       -0.34439044098260
N           -4.11969708763036       -0.33026211496406       -1.01041489801956
H           -3.95628097821065       -1.26641321735250       -1.34064428430090
H           -5.06787896705360       -0.00490119830421       -0.94840817140191
C           -3.47471946460485        1.53146821233640        0.27318085814968
C           -2.61235755270620        2.43344403234422        0.89779271073531
C           -1.24702227537006        2.47674908376187        0.90262251375466
C           -0.28256359358847        1.56274404091326        0.38382241312539
C            0.98166927274804        2.07378754148434        0.15172706347113
C            2.16792176954621        1.47341708485076       -0.30844944642539
N            3.11789929385476        2.31610149313712       -0.78203155999028
H            4.00665466333776        1.96005412817662       -1.08847434101792
H            2.94334916413152        3.30298532083131       -0.83153091461597
C            2.49626569788021        0.10741840564275       -0.24039696578421
C            3.78277192257968       -0.26017032145741       -0.66170618189355
N            4.83803007331418       -0.55339994508206       -1.02061097489915
C            1.70033227173683       -0.91979651309726        0.34219178910968
N            2.33994058324048       -2.06161427659781        0.68512739550619
H            3.30862690004982       -2.18497189014534        0.44379775719627
H            1.80777033914752       -2.85974179634243        0.98957445277711
C            0.31702257677427       -0.85611007069493        0.54137473683208
C           -0.26394780923161       -1.97624334173375        1.16830257634292
N           -0.68766195067899       -2.86190592623118        1.76969398726702
C           -0.62510736532756        0.17331733959794        0.18866432421164
H            1.05346256573172        3.15217622401265        0.24305357754422
H           -0.80815918193439        3.34961069875433        1.37096566150459
H           -3.10484260022532        3.26654287980249        1.38480224033412
H           -4.52313631218722        1.79960092926859        0.25663881449166
