28
 energy: -45.810991369127 gnorm: 0.000933889206 xtb: 6.6.1 (8d0f1dd)
N           -4.06531329672903       -0.87896634147703       -1.50256385812345
C           -3.13720019472991       -0.38571985246389       -1.03561028848799
C           -1.98193743342704        0.18618144887274       -0.47160609691949
C           -1.93128915970325        1.55530402002545       -0.38746094811722
N           -1.05871894358485        2.27812211117368        0.32175512260710
C            0.16342560988328        1.96075545194228        0.55999011397820
N            0.83883343364636        2.58857915087690        1.54088021817859
H            0.35977713102776        3.24449922557508        2.13300061373123
H            1.82554872998140        2.44136678929471        1.64999639041555
C            0.90413179709960        0.90276398497056       -0.17904422776326
C            1.97074677562233        1.14909427307823       -0.95754564592932
C            2.77270746787416        0.15413079785105       -1.60589162671678
C            2.98441767418563       -1.10054042164649       -1.15048289279792
C            2.47364687153337       -1.68164642737030        0.05067574844079
C            1.33436314177394       -1.34259861564428        0.70182178661981
N            1.04172199594974       -1.80870624993944        1.96148668481400
H            0.06665510365477       -1.85686035881415        2.21074274721041
H            1.62811795350507       -2.53867211318538        2.33254551648853
C            0.34623685650274       -0.40101522010455        0.13607666169348
C           -0.96863909808882       -0.73205286685276        0.00971129123201
N           -1.39910003920973       -2.02435060317736        0.34581485126543
H           -2.31668889750214       -2.24565517236897       -0.01758162943861
H           -0.72704197502784       -2.74841432487695        0.13018371955659
H            3.07155334577390       -2.47952546149502        0.47659359385739
H            3.69916828350837       -1.71346902101908       -1.68611922159974
H            3.32097382460167        0.48346071141678       -2.47848139351989
H            2.24680395008864        2.18154113119177       -1.13667330831482
H           -2.74826712209908        2.13394010926509       -0.80130093956587
