26
 energy: -47.190833825257 gnorm: 0.000971295725 xtb: 6.6.1 (8d0f1dd)
N           -5.40898519008854       -0.95821475238513       -0.15738163390768
C           -4.28807348815675       -0.70477301117269       -0.21232686004111
C           -2.92351259969231       -0.37523514696260       -0.25194248173552
C           -2.08510094449758       -1.16376658892586       -1.04854359520037
N           -0.79600719938121       -1.26548587051031       -0.96877589123280
C            0.09395311633139       -0.54179326072893       -0.32122477451751
N            1.10786706878751       -1.17465403592944        0.21087751678646
C            2.35407214271469       -0.82370551008076        0.40468781822625
N            3.07314424503931       -1.58848710634491        1.25071480842982
H            2.64205769519997       -2.41328623598360        1.63149129534071
H            4.07386405760813       -1.49137240177238        1.28594483819494
C            3.00734240913943        0.25377156438396       -0.27704279173585
C            4.40745635750459        0.20857640449454       -0.35356014959205
N            5.55533735506994        0.13620779377334       -0.39976792528985
C            2.34698072196539        1.39588509936167       -0.73452739113714
C            1.01652330581747        1.73817482004964       -0.59687817902778
C           -0.06164171463357        0.91663268404408       -0.22735716480017
C           -1.26760165257956        1.44876079105754        0.21946927034201
C           -2.51277736441037        0.83080614500764        0.38960414793363
N           -3.45396239209544        1.50329841773612        1.09427493488881
H           -3.26715880758852        2.43049039316145        1.43226544389901
H           -4.39913286782161        1.15918189194437        1.12266586542375
H           -1.22705459859299        2.48723195749133        0.53126045181533
H            0.76179452840746        2.76412342556307       -0.83289430369613
H            2.99449568448380        2.16022016931562       -1.14957713151401
H           -2.55136279383296       -1.84194376958985       -1.75653093095830
