21
 energy: -34.972971797141 gnorm: 0.000813215252 xtb: 6.6.1 (8d0f1dd)
N           -3.09607933595682       -1.20525153114514        0.93347564308929
C           -2.21805000196325       -0.49726939702896        0.19611254375500
N           -2.67383261930984        0.60624866708638       -0.36773422372176
C           -1.85646939507802        1.58924621504586       -0.74505818970371
C           -0.52682667173196        1.78536518253371       -0.47169601442861
C            0.44130339812927        0.84838009203650       -0.00480316461030
C            1.63827298468640        1.30595107567181        0.52325184448110
C            2.78190835571237        0.55554941981346        0.82864297715208
N            3.19450745577913       -0.56728141794562        0.31714443803006
C            2.50003290082637       -1.34042666031017       -0.52505813784145
C            1.15356846283828       -1.44485803632782       -0.69949313792843
C            0.13904964138433       -0.56936014834154       -0.18995032440793
N           -1.03463876017521       -1.08919566155157       -0.00483575174769
H            0.77201462508814       -2.28979200710367       -1.25723612246000
H            3.13195931600881       -2.06139561932870       -1.03569172450293
H            3.49545086890234        1.00814070536542        1.51294693075401
H            1.67197986083823        2.35650045398845        0.78696030621643
H           -0.12901196326183        2.76668749904488       -0.69932575563948
H           -2.38659530128390        2.39777413962306       -1.23899561044337
H           -4.04977547208052       -0.89309954678880        0.96859910354420
H           -2.85284021505277       -2.13209073473833        1.23383494681320
