22
 energy: -44.308486621804 gnorm: 0.000691974665 xtb: 6.6.1 (8d0f1dd)
N           -5.17915950002892       -0.61211697919438       -0.39245973087937
C           -4.06830779890798       -0.36624070293710       -0.24672891492621
C           -2.70498465722039       -0.06042897984151       -0.06456252650972
C           -2.04573658707724        0.76674918443559       -0.98182691466392
N           -0.94176585536096        1.42066930680659       -0.73362898303833
C            0.03288954787249        1.25056393484020        0.09826253614468
N            0.76667143046323        2.21331710882178        0.60780412950731
C            2.03860330750570        2.06070949038647        0.88607591288087
N            2.89163900276020        1.21840416187932        0.36299801265300
C            2.64230813447898        0.03321374388903       -0.18158372727721
N            3.63982193264876       -0.49564052578369       -0.90425060636980
H            3.59679519290667       -1.45213078100708       -1.21554019428953
H            4.49754645263607        0.02320241215507       -0.99031014243199
C            1.48458194428446       -0.77116142761068        0.08208180769872
C            1.57885333513365       -2.16233517619371       -0.09893015511076
N            1.69814730305920       -3.29090297102438       -0.27803770318070
C            0.26973474514187       -0.19605379511164        0.45369053749478
N           -0.71786013056282       -0.77495058691732        1.06978201680331
C           -2.00640747454086       -0.61995289113643        1.02724912653491
H           -2.55462218808227       -1.08062933403231        1.84030923886397
H            2.47613944338360        2.82825977853060        1.51507585653310
H           -2.50931153289459        0.99888260834399       -1.93382514213625
