26
 energy: -47.190570816714 gnorm: 0.000305916779 xtb: 6.6.1 (8d0f1dd)
N           -4.10761526861014       -0.62003727101569        0.14055127652298
C           -3.01027047041929       -0.27156607295093        0.12138146689537
C           -1.68840622200813        0.19960876671047        0.11168623583777
C           -1.51633992466600        1.59812625399552        0.33446287179044
N           -0.48999594106533        2.34434313285360       -0.03107237894556
C            0.74016309815415        1.97447580869478       -0.33950489925781
N            1.48327745544919        2.93369277660222       -0.92501968581951
H            2.47240309706841        2.80020880092672       -1.05142075161965
H            1.08387788529499        3.85006501185065       -1.02960369994164
C            1.37890707372816        0.74748728263054       -0.00176260703616
C            2.78349273120713        0.75180275567241        0.03238516188230
N            3.93267938420156        0.80397558462501        0.02416124281115
C            0.72776049287471       -0.46076513702248        0.29808614407886
N            1.37407736496037       -1.37272642231464        0.98350917599118
C            1.43130176328037       -2.66617096886880        0.96625752900460
C            0.92780428872375       -3.48359300133653       -0.04714809561746
C           -0.14545184135475       -3.10336440631935       -0.83633429732960
C           -0.91923678683422       -1.95194260772342       -0.73851206011070
C           -0.65643706283234       -0.73313540348464       -0.10155548173164
H           -1.85544559641174       -1.97295292481418       -1.28461362719436
H           -0.51647270273132       -3.84893483871754       -1.52903289297558
H            1.30927536604189       -4.48954013573595       -0.13698905725677
H            1.98098322961800       -3.10473706543271        1.79174591735399
N           -2.54954656525566        2.28680827366355        0.85736953718944
H           -3.43048080983738        1.83261827721671        1.02922104844529
H           -2.48563355977613        3.28890301199618        0.89457508003267
