32
 energy: -64.690926738388 gnorm: 0.000465777750 xtb: 6.6.1 (8d0f1dd)
N            5.34097100310712        1.36942581049720       -0.80008623109819
C            4.26889692538299        1.05919853634234       -0.53147810672873
C            2.95066494409681        0.65722724118161       -0.22078138209409
C            2.20763279106918        1.54587409248017        0.58171340854144
C            0.85397904669694        1.58592732500977        0.77016869525187
C            0.34803545127475        2.57294242214580        1.64893181435979
N           -0.05200337403166        3.32989912191428        2.41174755631171
C           -0.15099685827382        0.70564418412268        0.19597988879022
C           -1.33931887680120        1.26024088377255       -0.23403608491773
C           -1.34830653535896        2.66816001815724       -0.40515953167829
N           -1.39669851246166        3.78910539653934       -0.64569073768920
C           -2.55668146894200        0.61172010088425       -0.65867021254695
N           -3.39643531132018        1.32427540170923       -1.43047981652163
H           -4.30678844487295        0.95283213666272       -1.65163271654016
H           -3.19889080357613        2.28717968847749       -1.65083682081559
C           -2.95132604857511       -0.65742371258049       -0.21587778706339
C           -4.27000520049191       -1.05948352819444       -0.52439506939277
N           -5.34250499608294       -1.36962703456269       -0.79109244724782
C           -2.20708315745442       -1.54569516537035        0.58589842685886
C           -0.85311970301165       -1.58576254291845        0.77229427013436
C           -0.34610640022401       -2.57233413511361        1.65091747715458
N            0.05576771374294       -3.32887538992135        2.41329763025765
C            0.15105974715499       -0.70583470857115        0.19617026245990
C            1.33880981022290       -1.26061578037511       -0.23522289432695
C            1.34784237104496       -2.66863104072930       -0.40531416462727
N            1.39559932706071       -3.78969405449284       -0.64540853394413
C            2.55545107854233       -0.61224889509307       -0.66212949856050
N            3.39415725598392       -1.32530643001902       -1.43463930835953
H            4.30415731373699       -0.95394137066832       -1.65739434549701
H            3.19637805969769       -2.28838027413526       -1.65401056021393
H           -2.77750157738468       -2.34114408241000        1.05163309614032
H            2.77874087704979        2.34156478961343        1.04618132789020
