24
 energy: -38.916723318623 gnorm: 0.000452402604 xtb: 6.6.1 (8d0f1dd)
N            4.15548429744573        1.63152475841100        0.98090078219744
C            3.23896957475938        1.01805074645101        0.65996751104400
C            2.11012286420336        0.27224820837802        0.25976054203312
C            1.02321124917194        1.03691470073777       -0.29506245774787
C           -0.26569570465694        0.66376480496000       -0.39116744684431
C           -1.24026167453415        1.53591769249928       -1.06827169339502
C           -2.41756714963502        1.90431437340916       -0.55285584192202
C           -2.93370869410706        1.44136115650228        0.72124792197563
N           -2.77485054675406        0.29291679418975        1.25146328373213
C           -2.00161781285007       -0.70366404349361        0.74090343513215
C           -0.83356732915208       -0.60434115925051        0.06127382467583
C           -0.10706899517793       -1.82600702443368       -0.32250651544315
N           -0.88863017706691       -2.83727718453027       -0.80442956359128
H           -0.44714266565457       -3.61810806091213       -1.25934552231852
H           -1.84332787316313       -2.63925392054005       -1.04677597266270
C            1.22866331405851       -2.02227019671185       -0.13364559367780
C            2.19070291825843       -1.09041821716801        0.31999950350901
H            3.12769250803756       -1.51114426598208        0.66446837796862
H            1.59875544115756       -3.02409116451568       -0.31702207063807
H           -2.33304445151815       -1.68358035008218        1.06642736246471
H           -3.59892045408671        2.11417922692947        1.25399471074977
H           -3.04024538894348        2.60807200145922       -1.09112749560688
H           -0.93602434333580        1.92123189425357       -2.03552604100750
H            1.28553826124275        2.03170367793947       -0.63637975002873
