30
 energy: -54.873567902019 gnorm: 0.000585165587 xtb: 6.6.1 (8d0f1dd)
N            5.32793679935307        0.37758889067525       -0.93625171544352
C            4.20257093602079        0.42445164682102       -0.69978101192873
C            2.83629968095029        0.43615097668748       -0.38819514734047
C            2.35738134956943       -0.53450855850754        0.56313038102006
N            1.12947816675122       -0.94727486930567        0.62431578309617
C           -0.02283715348374       -0.54886853171081        0.10952817580218
C           -0.30533437949128        0.87136137269893       -0.05289654305745
C           -1.55772309337372        1.44207828547690        0.28045480952098
C           -1.54676067428539        2.82664017649073        0.53056222229824
N           -1.57630392551614        3.95557957063786        0.75629487403492
C           -2.83286142170673        0.82631005422555        0.34332982180941
C           -3.15535387702029       -0.46274481999058       -0.08813573852664
C           -2.32427871451956       -1.52252884675018       -0.42235601865860
C           -0.91712381871194       -1.57867336860174       -0.21287746934096
C           -0.32737711992817       -2.85644191869974       -0.28869995704557
N            0.11846965495799       -3.91364785874457       -0.37070607603485
N           -2.90587480932053       -2.64595272076951       -0.91058707522986
H           -3.90664283042550       -2.72835417242465       -0.92522044355823
H           -2.35375942118777       -3.47799163728536       -1.03369501264219
H           -4.21727838939512       -0.66947503241131       -0.15662181660823
N           -3.86290527394886        1.59459901659097        0.77909718548231
H           -4.80660999635692        1.26023513130627        0.70470409356529
H           -3.71143323007488        2.56735047335786        0.98578861335615
C            0.68662993613748        1.70375763061773       -0.58472171183563
C            2.02337651728562        1.45295409789483       -0.86582745574273
H            2.52217233164529        2.20078114375577       -1.47139097632603
H            0.33579334785219        2.68019443001950       -0.89637497535391
N            3.23795168311595       -1.08266525851127        1.42446019576426
H            4.22392279421814       -0.94285414411387        1.28208297577470
H            2.92916888953633       -1.84787591763519        1.99922420478353
