27
 energy: -51.706248187478 gnorm: 0.000916077781 xtb: 6.6.1 (8d0f1dd)
N           -3.44946187344584       -2.34531835895699        1.19117074599527
C           -2.38047594817854       -2.05042344516691        0.89392255111737
C           -1.06645607637484       -1.68587818147614        0.53539936412015
C           -0.04743202560974       -2.60848131460772        0.76769995199342
N            1.15717278646583       -2.65629392602378        0.26445571521687
C            1.81231557061403       -1.70428938949281       -0.39184096192957
N            2.87592299133790       -2.14228624845813       -1.08815519842367
H            3.11027505316448       -3.11867410661846       -1.02732606217694
H            3.52911510647533       -1.49177068591326       -1.49242911461066
C            1.57877820369761       -0.30016840479499       -0.30913218662045
C            2.63763026949415        0.52176678583185       -0.73965629747925
N            3.51261864116449        1.11936718954203       -1.18726445856215
C            0.37019602923855        0.31621534103856        0.06561921505413
C           -0.91231135665042       -0.38110886217481       -0.01290998771485
N           -1.95964070303999        0.17606142415316       -0.54986344229852
C           -2.36821745970466        1.40969199688709       -0.72321592107033
C           -1.94627597037257        2.49616523351215        0.08925831009898
C           -0.71613064004374        2.54332033602942        0.68618480008578
C            0.35802370250410        1.63779293093059        0.56326586069197
C            1.56343172819286        2.09275295922224        1.14710333075534
N            2.49789989184133        2.48345416314806        1.68776733078513
H           -0.48121802672771        3.43842332477940        1.25002772700071
H           -2.60075637547424        3.35126898818728        0.16906419976127
N           -3.30914560547811        1.60458317984124       -1.66640864558779
H           -3.67745814466448        0.80775397941944       -2.15672994589470
H           -3.78492157967145        2.48587963448275       -1.73473986148897
H           -0.30507890735490       -3.48653169892545        1.35313661818228
