25
 energy: -47.469423171632 gnorm: 0.000873017019 xtb: 6.6.1 (8d0f1dd)
N            4.51152342929791        0.51609658613802        0.49242244443262
C            3.37664630651944        0.44680112449737        0.30881540903619
C            1.99485728489505        0.38329284403715        0.07804520028287
C            1.38452681361615        1.56411317994940       -0.45380200514501
N            0.13037184211765        1.91197563483043       -0.28467047527825
C           -0.91934110119313        1.17019746244462       -0.01181312675780
C           -1.97862989557055        1.69312275901650        0.74304911152135
C           -3.24010171686897        1.13281959430954        0.92165291606459
N           -3.89895297964546        0.30464455041731        0.13947649776943
C           -3.33745311440845       -0.28152744910392       -0.90665770222344
N           -2.10468381351550       -0.65131835057266       -1.03890628864795
C           -1.02193942614142       -0.24559532574987       -0.39710794433225
C            0.00498990706775       -1.14524490065170       -0.09652847175424
C           -0.33495457790893       -2.51263420549553       -0.15417460859837
N           -0.57280902822535       -3.63651293865866       -0.18112249511395
C            1.34379161708626       -0.84422103890819        0.29973543830025
N            2.06629841177045       -1.85535056522467        0.82297139041490
H            3.04983738715008       -1.73228616033281        0.99830246505695
H            1.67213387187039       -2.78055178762325        0.86936997086156
H           -4.01596868852461       -0.60467491403886       -1.68864507754596
H           -3.83781060088237        1.51384065084126        1.74412474859298
H           -1.73626269994292        2.57728943308702        1.31757640411214
N            2.17187188024727        2.46827197442457       -1.06442465472669
H            3.17064874400445        2.35152470617691       -1.07670533842411
H            1.76902598288420        3.34805166408857       -1.33659027939840
