24
 energy: -43.732535816863 gnorm: 0.000659099984 xtb: 6.6.1 (8d0f1dd)
N           -4.73101200883931       -1.72774866669488        0.67011520936862
C           -3.69900321562759       -1.30750036018916        0.39276565006071
C           -2.41840202151981       -0.82535280816636        0.06648719914505
C           -1.64982851530913       -1.54573422795427       -0.89742158057839
N           -0.38455701654286       -1.49758022153995       -1.04740072147464
C            0.58454508767986       -0.78848387254093       -0.44334626998578
C            1.73296179608140       -1.44782069051897       -0.07796303360078
C            2.97487916426340       -0.85114593075655        0.26015707140241
N            3.44127295784502        0.30751570466350       -0.17809896527345
C            2.75278572827122        1.29295430943213       -0.71640993613838
C            1.39645555756417        1.55444067690144       -0.66850765771625
C            0.38335397843693        0.65120758873021       -0.30279542811720
C           -0.84792084108550        1.12542489493401        0.20242925248564
C           -0.87526828185762        2.48922144392848        0.57842199156599
N           -0.92420776532079        3.59355044435348        0.88798963559076
C           -2.02227422767535        0.42206977008823        0.51730164210333
H           -2.75033001114786        0.97697471770360        1.09997819888959
H            1.08693339277466        2.56470923132776       -0.90451592876204
H            3.39125230680254        2.06432762467106       -1.13596562769530
N            3.85973586908744       -1.57966170458990        0.96601089160146
H            3.64599183081015       -2.51225045065886        1.26922767692404
H            4.77745764008882       -1.19907272190623        1.11991579916724
H            1.68046211190808       -2.52888762591452       -0.05991996884390
H           -2.18112104478849       -2.19827685980283       -1.58373501821958
