28
 energy: -49.826505227706 gnorm: 0.000559954257 xtb: 6.6.1 (8d0f1dd)
N            4.83819929051675        0.32118651353150        0.36426961266888
C            3.75285313005287        0.05698536923812        0.08492106433107
C            2.42117248709092       -0.23719882944611       -0.24537772338125
C            1.42033135994032        0.48635506837941        0.37493497417500
N            1.70344326689935        1.33554773594123        1.38671742586388
H            1.00195264481222        1.99702844300977        1.67495868134083
H            2.66190569970778        1.48281072152802        1.66038169621819
C            0.01261290625156        0.37514665921364       -0.01962418911081
C           -0.78348443248277        1.47539008836536       -0.19849586259153
N           -2.08582700556443        1.48771674491361       -0.58065193963930
C           -2.93248916116084        0.52391778986333       -0.38324045612474
N           -2.82796258935771       -0.52248718834548        0.47744403883659
C           -1.73446159507027       -1.15771035853351        0.70888101125868
N           -1.67811805527393       -2.00788335330813        1.75064111180350
H           -0.89118418065572       -2.62207400355408        1.85855034785009
H           -2.49374488116295       -2.13491169845249        2.32489227926545
C           -0.48794363474651       -0.99855620595727       -0.07918934119067
C            0.11723259723245       -2.03997196850213       -0.67668242584297
N            1.23615823050218       -2.01930041328378       -1.46322308660157
C            2.21714956953325       -1.22365801180908       -1.28656014305681
H            3.05210160344643       -1.36193471801858       -1.96849543807671
H           -0.34686118670450       -3.01993331613172       -0.64186612811917
N           -4.13817145753025        0.61780233821297       -1.00258034335571
H           -4.36369778030948        1.49723547259020       -1.43318879280932
H           -4.88647266061699        0.04735482360104       -0.65097106045385
N           -0.25771379803511        2.76854097248711       -0.07748228687494
H           -0.91578982867909        3.44643177383316       -0.43820229484636
H            0.66225395536494        2.89000263103442       -0.47929060593743
