29
 energy: -50.326939548535 gnorm: 0.000750236154 xtb: 6.6.1 (8d0f1dd)
N           -3.86058262231009       -2.79159185207751        1.50578995407891
C           -3.24256069731774       -1.96582823916385        1.00012436016222
C           -2.47639129101080       -0.96116859955222        0.37362806974472
C           -3.11766758157074        0.17894908416627       -0.02295151853165
C           -2.57075139847232        1.25043881033188       -0.76763254759494
C           -1.25699151484223        1.60070836095466       -0.86128185509634
N           -0.83110087764445        2.53002459189350       -1.76047822358621
H           -1.51226545029974        3.02578398380080       -2.31049016678212
H            0.05218778906026        2.98247858075507       -1.59324335342431
C           -0.18637497000198        1.00721785431111       -0.03382061081575
C            0.65900688838614        1.79389924011517        0.68474993560317
N            1.69136477630964        1.38350478871250        1.48591219670563
C            2.42097258439501        0.35217686108193        1.29399169680490
C            2.37880646700826       -0.60509109083287        0.21726825180935
C            3.58268435160174       -1.26651678153931       -0.08733115665760
N            4.55891187974333       -1.81228927559388       -0.35257775649663
C            1.24476126574839       -0.94978738527133       -0.48472850045571
N            1.29170040277461       -1.78781077803075       -1.53936063562770
H            0.44015385942454       -2.14138913282115       -1.93878352117672
H            2.17160308851471       -2.18007170568842       -1.83360722232813
C           -0.08822017295902       -0.44804139696210       -0.10293945481730
C           -1.10531453265248       -1.30801843652743        0.09073449737819
H           -0.89408416093664       -2.37135342079522        0.07235103869476
H            3.23388546926565        0.23003285172784        2.00403483344924
N            0.50723136556585        3.18536616789995        0.70395848504939
H           -0.45127988888792        3.50318322933875        0.75344658481867
H            1.07871676836799        3.59433463171037        1.43112012773308
H           -3.28367102972173        1.86014992674955       -1.30986340590503
H           -4.18361846513977        0.22933174930616        0.16457311816090
