28
 energy: -49.822166942404 gnorm: 0.000974979730 xtb: 6.6.1 (8d0f1dd)
N            3.74269366539241        2.17342905292449        0.98042976977736
C            2.93582188488672        1.42946373207700        0.62605679825460
C            1.96314513499668        0.52283872822300        0.18877678773607
C            2.23772612456994       -0.83027117779408        0.33974637719058
N            1.58419005028712       -1.83859561916713       -0.27697434284389
C            0.32633063505232       -1.89380778924441       -0.53948152040651
N           -0.11194733758460       -2.88455062750216       -1.33857220869304
H            0.54788703015201       -3.54876571289559       -1.70562058337630
H           -1.09565353941805       -3.03222377949070       -1.46816671782440
C           -0.70006443277909       -0.95176992741878       -0.04221331416370
C           -1.83378881617077       -1.41164590060162        0.52958260630139
N           -2.88491575587125       -0.68727447333002        1.01462568182953
C           -3.19220857361520        0.47324748369860        0.54354221935694
N           -2.79869078085609        1.02838147536949       -0.65829990888079
C           -1.60900293759181        1.00556068827124       -1.10412537242694
C           -0.44153788184140        0.43824260947645       -0.43691872555141
C            0.76485804876263        1.07521556639995       -0.40850392191705
N            0.88376808166004        2.35731548221600       -0.91936297500423
H            0.04148168472501        2.90606370732149       -0.97087939106974
H            1.69788826991224        2.87182155961728       -0.61959348408298
H           -1.47488157822042        1.43875437986410       -2.09661359618593
N           -4.12198924320298        1.21758396556989        1.20007256082368
H           -4.59049053420261        1.93921223881239        0.68026365010832
H           -4.62679330503496        0.75712204003539        1.93766681029749
H           -1.92432658321011       -2.47132714065404        0.74515343519394
N            3.31778722088654       -1.23706621052093        1.06159716440261
H            3.60803650738618       -2.19295004474974        0.95356992534521
H            4.00767080772893       -0.55485240270738        1.32828695870807
