26
 energy: -42.377679780571 gnorm: 0.000938603020 xtb: 6.6.1 (8d0f1dd)
N           -3.77587484810003       -2.11812716682688       -0.59821626040317
C           -2.87040927408282       -1.44492970041811       -0.36901576654613
C           -1.78535415697197       -0.60472226284686       -0.07926066231954
C           -0.60076604731683       -1.22592408035948        0.43378099987145
C            0.65757268362980       -0.72651195059143        0.43411705461288
C            1.75918791345603       -1.50003135701621        1.01591559001734
C            2.97955488790325       -1.65062088233616        0.48825992628800
C            3.48671276749313       -1.05942508622997       -0.72743439891635
C            3.08924916646419        0.10183766695982       -1.27415175128347
C            2.07491501508827        0.97722074828208       -0.74795085638309
C            1.01055384059112        0.61486129396973       -0.01052734246464
C            0.08051268747024        1.64072235431461        0.53018351148871
N           -1.17982520334631        1.70935114536037        0.30174668059901
C           -1.96278593697452        0.76139579890436       -0.25736994771298
N           -3.05572507538252        1.25086211613253       -0.91502109138879
H           -3.82427208947084        0.62195789984520       -1.08212561309386
H           -3.27385435102424        2.22138651497321       -0.76685131790286
N            0.64454471539455        2.58594568779934        1.31160924038439
H            1.62689467415777        2.55521623733319        1.51486352940509
H            0.05313398568242        3.23178574544197        1.80541506660076
H            2.17210771391478        2.02300883361288       -1.01602395704736
H            3.61762651480931        0.47262738422604       -2.14340766657786
H            4.31812087410668       -1.58316273282908       -1.18171599110866
H            3.67351925950149       -2.31021527776544        0.99572965410771
H            1.52425111684175       -2.02002554461627        1.93796120788251
H           -0.72841670423410       -2.24719043431907        0.77306808049090
