26
 energy: -46.397259722886 gnorm: 0.000858033781 xtb: 6.6.1 (8d0f1dd)
N           -5.08322784208190       -0.21540209986160        0.78005597797767
C           -3.94223881910969       -0.23532037641200        0.62801267363420
C           -2.55924896504973       -0.21550669614497        0.41337249942594
C           -1.71699084910686       -1.03103322074595        1.15870723712640
N           -0.47871699900606       -1.35012268959049        0.87675834325803
C            0.42723550020583       -0.75090432202795        0.14826164285957
N            1.41438808258831       -1.44638242262423       -0.36541549893116
C            2.66140362833394       -1.05057578905560       -0.53654797974589
C            3.28660122665704        0.04760122794964        0.08208083771210
C            2.66951349196779        1.20450800311251        0.54338716846247
N            3.45479326063845        2.14291027116431        1.14614591546013
H            3.08543757185564        3.06445997312488        1.29744102827188
H            4.45409407433566        2.04357108531052        1.11605921132469
C            1.31571240479363        1.56085720308328        0.33917545921414
C            0.29612509944707        0.71902406383793       -0.03269218008275
N           -0.82417571712142        1.16948051046951       -0.58716884368169
C           -2.03642231402133        0.68817822492070       -0.58031614186464
N           -2.88847457138613        1.16929183085297       -1.51876261208191
H           -3.87710450631341        1.02434468754633       -1.40258337060203
H           -2.57282615118214        1.92832109358936       -2.09729809389551
H            1.06532957617715        2.60716894046515        0.45999662546598
H            4.36771102826670        0.01740002299891        0.13843291094290
N            3.41803352902171       -1.87409784035284       -1.31132384815243
H            4.41972460534904       -1.82169125467893       -1.25769559306262
H            3.00424670687394       -2.75290596793174       -1.57342294356605
H           -2.13100756202669       -1.56438908180826        2.00890211552094
