26
 energy: -46.395654631500 gnorm: 0.000722143313 xtb: 6.6.1 (8d0f1dd)
N            1.87923562453776        2.68563896469010       -1.49534363550014
C            1.66126681605627        1.68857200409705       -0.96337757130290
C            1.43201522269255        0.45863544522592       -0.32389124850393
C            0.15030580721598        0.28346900621197        0.24046568664862
N           -0.59408013062742        1.30351287666568        0.56140085370957
C           -1.91536209055134        1.38461936975850        0.69656249662077
C           -2.83911584261472        0.59804817704023        0.00551845536339
C           -2.49793082269857       -0.63393187159799       -0.56619278971868
N           -1.48773692247758       -1.40367094550815       -0.18522038039991
C           -0.36922682698281       -1.09560345939730        0.41410270138372
N            0.25505055437101       -1.98534390798490        1.15259519804718
C            1.54800004118446       -2.12623661623884        1.30822178571509
C            2.56921009547671       -1.60200895538726        0.53624165251734
C            2.49852124755515       -0.47538389412769       -0.29920704846643
N            3.59196946046034       -0.18429857727011       -1.05067320672371
H            4.43676881728025       -0.71135964345552       -0.91824510349354
H            3.65281712459919        0.70987577430324       -1.50852604854326
H            3.54196657232701       -2.06934172803291        0.62039301683686
H            1.81531904413562       -2.84455532716339        2.07681331940183
N           -3.30473724689999       -1.18122184961029       -1.51635968566326
H           -4.22906009419106       -0.80951134352455       -1.64415614114064
H           -3.15267777958727       -2.15046335208984       -1.73789190186661
H           -3.84650096355023        0.96924259036929       -0.12014001202407
N           -2.34312799114289        2.42012749334727        1.47065282529718
H           -1.65018091698558        3.09962923672062        1.73641477927216
H           -3.29121114728488        2.73782847476043        1.37094385223442
