30
 energy: -60.454579144327 gnorm: 0.000805961179 xtb: 6.6.1 (8d0f1dd)
N            4.90630046710234        0.54876169366232       -1.41861808341589
C            3.85367431660969        0.32696304203566       -1.01983709528614
C            2.55473042106929        0.08045883769611       -0.51919527583217
C            1.96415888957755       -1.10141114292068       -0.86706248077881
C            0.73043235538040       -1.62597310587306       -0.40717450860692
C            0.57102957068705       -3.01514373533452       -0.65064284216974
N            0.46381982363536       -4.12002720376880       -0.93544456942096
C           -0.35887513670150       -0.94138945572098        0.10542614218586
C           -1.42929027721090       -1.67552433693907        0.74152402931314
C           -1.03996770837912       -2.79283938292126        1.51415368159324
N           -0.72986900234835       -3.65436247544449        2.20520936584605
C           -2.76563063544202       -1.33819893231088        0.74165793620236
N           -3.38530754092223       -0.46066436379903       -0.03024469036418
C           -2.86826027039351        0.59179145938829       -0.60297828675074
N           -3.62314292114695        1.22384576199601       -1.51260640367755
H           -3.36076821626394        2.12882904424692       -1.86662833646390
H           -4.54464154702351        0.86391438284506       -1.69825346289864
C           -1.59159987604792        1.19504959023285       -0.24277350838332
C           -1.51811293446598        2.59046060946135       -0.43689143974498
N           -1.51473600275977        3.70929300386972       -0.69667881891705
C           -0.45037967328435        0.50906993173829        0.11731539970193
C            0.67353485269141        1.26555400019052        0.62709250133285
C            0.32032163459365        2.32343260162185        1.49234190066622
N            0.07276087191174        3.15178953586245        2.24882211604590
C            2.02752414910239        1.07966706007535        0.38966056873706
N            2.92626918231376        1.89718760515928        0.97017220308640
H            2.61409390896123        2.65325154729461        1.55767660917801
H            3.90125295474084        1.83570670739303        0.72890449270548
H           -3.43830172268991       -1.94025512443307        1.34282682678343
H            2.54289838628100       -1.76683404127812       -1.49784599025778
