28
 energy: -52.206959040633 gnorm: 0.000528783294 xtb: 6.6.1 (8d0f1dd)
N           -3.26216449431164       -0.02188941613269        2.41262177640483
C           -2.58156333202277       -0.47591217560801        1.60893673440731
C           -1.69191527685752       -1.03261828521200        0.65992512995007
C           -1.67869983257956       -2.38065814446387        0.48730987289590
C           -0.79557500124012       -3.12379667926875       -0.33691481259495
C            0.44608544985122       -2.73308832019981       -0.72069730654495
C            1.11447044870919       -1.51710847662662       -0.37957937785168
C            2.51848713552117       -1.55229416952380       -0.57564657690230
N            3.64008254607587       -1.59869410535938       -0.81000776738129
C            0.56903814267009       -0.30321394371084       -0.01714776734259
C            1.44121424599977        0.75149368353726        0.47203036635704
C            2.42128953756111        0.33374039018995        1.39464369411969
N            3.19276344113527        0.03430936866452        2.19214532669751
C            1.40941713976582        2.09006986741849        0.12470848770137
N            2.32993576708408        2.93491941234477        0.63441058711708
H            2.36047032231474        3.89537232017360        0.34374882872795
H            3.03473387055701        2.59306128485394        1.26653659249081
C            0.48115510681956        2.66431830856110       -0.82076009667667
C           -0.75297117927296        2.22052524123150       -1.11899907617615
C           -1.42748215064322        1.08480509259853       -0.54736593182295
C           -2.84035648663614        1.12868550077855       -0.65261616771571
N           -3.97507319996105        1.17635625176060       -0.80849318182529
C           -0.85600491626128       -0.04227869597007       -0.02620178688290
H           -1.35837006033909        2.81422308964855       -1.79215347615135
H            0.80651468367778        3.59503846525258       -1.26703924713018
H            1.05606996877128       -3.44521527376821       -1.26251840516296
H           -1.11017777178678       -4.12669244752202       -0.58938004863985
H           -2.43228048170166       -2.94760451124738        1.02020644313158
