25
 energy: -47.470702551524 gnorm: 0.000483131281 xtb: 6.6.1 (8d0f1dd)
N           -0.75979718122888       -3.10017968040578        1.62468465567090
C           -0.14013296924115       -2.28589683908448        1.10401236579670
C            0.66823306048498       -1.27681548516749        0.53659298908371
C           -0.00956350249909       -0.07326365727195        0.13975386838354
C            0.76459351793206        1.16257123580708        0.30405645593348
N            1.98486828215172        1.27544868743915       -0.13098574027284
C            2.84115492768227        0.34939585742215       -0.54821004989207
N            3.01825393762826       -0.85761156065907       -0.01726204148653
C            2.03856870034055       -1.51870996294213        0.56367223997052
H            2.35832178100684       -2.44353827282538        1.03362289310954
N            3.73235745761254        0.73012537383967       -1.47981347051123
H            4.50143300681896        0.11613176790606       -1.68153723669506
H            3.75212772114335        1.68646644306906       -1.78564592799330
C            0.20564912476280        2.24409433781938        1.03564742748485
C           -1.12490793669998        2.54115620152723        1.14905536947030
N           -2.14762059801123        2.11550723847129        0.41676752271242
C           -2.21186812857592        1.04741308854258       -0.33514332027810
C           -1.33506625160972       -0.10334904044176       -0.25632332562779
C           -1.88963612215369       -1.31487459856533       -0.71466886248599
N           -2.39051137878314       -2.23370169786852       -1.19089569759453
N           -3.26250941666328        0.97606653434909       -1.17339967326892
H           -3.94681826384518        1.71220243677025       -1.13266104303543
H           -3.48780178198198        0.11288003145771       -1.63943664550096
H           -1.41027427084920        3.33823632176134        1.82826162277326
H            0.92258908087800        2.88933701194938        1.52330709975349
