27
 energy: -51.708656539834 gnorm: 0.000737836784 xtb: 6.6.1 (8d0f1dd)
N            5.00269017998353        0.31504418551197        1.10296388237738
C            3.90815727989933        0.44232278022344        0.77670870226274
C            2.56344791294615        0.57805117097689        0.37223277747880
C            1.96350157902928        1.79614102733409        0.65914706789817
C            0.72816786802723        2.27661805956108        0.25997760175847
C           -0.33066451952014        1.56491953609924       -0.29079670524244
N           -1.27351127284275        2.23225604876534       -0.94920985356863
C           -2.53947940113692        2.02442474003508       -1.07553727158817
N           -3.33682204004936        1.31701054104124       -0.29109746670880
C           -2.92077170318821        0.25726734785893        0.37696749880153
N           -3.81418039784380       -0.28172020302246        1.22148918593068
H           -3.65472258395617       -1.18463322110117        1.63716011789171
H           -4.72669903175113        0.13923842586318        1.26948614351316
C           -1.66832233647240       -0.43980188358816        0.18491039021893
C           -1.66890427760748       -1.77647764482320        0.63073854697846
N           -1.73636673067210       -2.83174105626693        1.08317614266970
C           -0.44706988439493        0.11115265193856       -0.22132128150161
C            0.63885243892325       -0.74811754981853       -0.54807873582940
C            0.28853436793159       -1.97648443123375       -1.14809545709742
N            0.05825999407197       -2.94811835436975       -1.71786839277574
C            2.01189373607690       -0.53302412994056       -0.34327410549389
N            2.87633193984151       -1.47562697905674       -0.76839100723039
H            3.85369698938624       -1.40530514901750       -0.53812393693590
H            2.53167059092072       -2.31907849173075       -1.19722711633325
H           -3.04173318872469        2.60066226697440       -1.84605634554477
H            0.55087921857642        3.33718539317919        0.37698226656974
H            2.59979425144541        2.50333276010715        1.17876628510099
