30
 energy: -44.431055781787 gnorm: 0.000930481547 xtb: 6.6.1 (8d0f1dd)
N           -4.26179565573346       -0.34930849958837        0.95765819218744
C           -2.93065309442015       -0.34538965116639        0.54371722931339
C           -2.59080290313889        0.71763559734445       -0.36348331353354
C           -1.36177324722762        1.18987522549527       -0.66272346255510
C           -0.09836941291939        0.72270700006796       -0.06417997040952
C            0.80821443597727        1.62828685392750        0.36422047913368
C            2.12343964811314        1.39133720411121        0.86262669660453
C            2.92946986257611        0.34415458600254        0.54658710843695
C            2.59055379867891       -0.71925845127094       -0.36050838614826
C            1.36183286129874       -1.19162626911127       -0.66081213861715
C            0.09781338280211       -0.72420250146195       -0.06376981811035
C           -0.80921133932688       -1.62959937987833        0.36408385306489
C           -2.12494903118208       -1.39243696135872        0.86103412482039
H           -2.54919791007599       -2.18035616835307        1.47190496140053
H           -0.49214043297909       -2.66629172904591        0.38336750857983
N            1.22281162100270       -2.25214321719890       -1.53754104976300
H            0.29808792422848       -2.40107117025502       -1.90744659953379
H            1.97792594114277       -2.41283415884797       -2.18522702686476
H            3.43937189584592       -1.21368475815624       -0.82042629617345
N            4.26018545685280        0.34825077845709        0.96189678943513
H            4.45850495440420        0.95345619095283        1.74386074138853
H            4.68919734281419       -0.56069817787689        1.04127823620263
H            2.54705948868066        2.17951753733372        1.47359720252029
H            0.49112394948686        2.66498724587507        0.38273461385859
N           -1.22184893140807        2.25001730802169       -1.53976204594585
H           -0.29674472093246        2.39878724808919       -1.90877867987217
H           -1.97629574272497        2.41043111402108       -2.18829404409162
H           -3.43914682262153        1.21186501044137       -0.82448646613902
H           -4.46092030207163       -0.95417953880627        1.73967625668072
H           -4.69088857494151        0.55967434213524        1.03620951353130
