22
 energy: -38.708692343473 gnorm: 0.000814114827 xtb: 6.6.1 (8d0f1dd)
N           -2.39474724035519       -2.11349691085831       -1.05179723805720
C           -1.76466919311107       -1.13498201738112       -0.35140756178836
N           -0.51591764335397       -1.41694358539098       -0.00470078364847
C            0.44415058755001       -0.61309735539618        0.36488667750541
N            1.41704753440303       -1.02677620002106        1.14905979166907
C            2.66304925691138       -0.63700439077968        1.11112029026500
N            3.33256049996159       -0.09942712785400        0.11631634623768
C            2.77853139640520        0.62882873208784       -0.84577217519278
C            1.52299321249847        1.19817056658894       -0.89627131550588
C            0.41712348839736        0.79189064083550       -0.11864849236106
N           -0.61977092960336        1.54855927760599        0.08519884872771
C           -1.86315602920401        1.19349980062842        0.42230416707898
N           -2.57733602795877        2.16855646699317        1.04293791328645
H           -3.57689105087888        2.09527711398750        1.09696349582476
H           -2.15848275699355        3.07995463939032        1.10804378949336
C           -2.48387078775723        0.00306716895115        0.04475636739036
H           -3.56419185913456       -0.03402070794671        0.02454359376109
H            1.33888268264805        1.98084159599148       -1.62035837098959
H            3.48848444829976        0.91540879379920       -1.61691758935177
H            3.26282843448104       -0.92399306772608        1.97050237369715
H           -1.91538411095080       -2.99301345277008       -1.14232040106798
H           -3.39672114225475       -2.10794411923485       -1.11908905107408
