25
 energy: -43.452666115394 gnorm: 0.000580786155 xtb: 6.6.1 (8d0f1dd)
N           -4.78574064398995       -1.07891690085030       -0.07038202304115
C           -3.67801599626811       -0.78207615776123        0.02237366410019
C           -2.32967518393387       -0.39286339720668        0.13093183032113
C           -2.02238480836385        0.93846246691322       -0.24097429129040
C           -0.79226195621710        1.57620565547837       -0.01355777759562
C            0.43351278593383        1.04996933200464        0.34001811911509
N            1.31574126794771        1.89680176571343        0.88986992359805
C            2.56777349476832        2.09947983679614        0.71665947145284
C            3.40572340649454        1.44379075012071       -0.21476632317379
C            3.16250279675914        0.15367172932393       -0.60244664236132
C            2.08505514083003       -0.68586058261290       -0.22949640584278
C            2.30259781371590       -2.04923538934191       -0.53060028963764
N            2.51830177507960       -3.14910034392239       -0.78198308017321
C            0.81046232687180       -0.35158512173237        0.26667290261322
C           -0.07999943267632       -1.37934584827024        0.65286128565255
C           -1.44907414008106       -1.36901681694057        0.62414243599823
H           -1.93450684487357       -2.28644999069023        0.93729134956606
H            0.38320023293874       -2.31609017617638        0.93697793195527
H            3.93612548886944       -0.34208381471731       -1.17847492028261
H            4.34385503965280        1.90643779075366       -0.48049698187791
H            3.00746145411251        2.84834547913388        1.36892422413991
H           -0.81011981878458        2.65807726178483       -0.08231339404900
N           -3.02209993189895        1.69389854690718       -0.74587646895240
H           -2.87250967480302        2.66687440609302       -0.94485300563479
H           -3.95203301108289        1.31664070659675       -0.82297319519869
