29
 energy: -45.517378833050 gnorm: 0.000589379227 xtb: 6.6.1 (8d0f1dd)
N           -3.41763286368841       -1.32637888368687       -1.87270104298436
C           -2.66827925284006       -0.79539801604027       -1.17717473716690
C           -1.74805134031551       -0.12661366388553       -0.35280088870511
C           -0.54269787137706       -0.87793375647691       -0.00461968918503
N           -0.72570985103008       -2.25829870214125        0.08087103567210
H           -1.49712339171415       -2.61454777390684       -0.46466298938065
H            0.12035303502845       -2.79869922196250       -0.02236879593892
C            0.66289685730870       -0.31303243455300        0.23794892569303
C            1.82268507842840       -1.12178091502309        0.67233283628746
N            1.58716201061074       -1.98088614089346        1.73026560887117
H            2.38604640229076       -2.26552560992071        2.27436257087018
H            0.74123516768732       -1.82589471853940        2.25275296277381
C            3.02158029822092       -1.10584528952378        0.04666487609259
C            3.42499234282030       -0.23070945711920       -1.00892811568650
C            2.96025487294985        1.01645717151734       -1.23536128795460
C            1.96138127689078        1.68920354015587       -0.46074484823196
C            0.93621439757140        1.12396292725594        0.20905120420378
C            0.04751318115886        1.94049446439850        1.03670973254240
C           -1.28872622488776        1.91508828275207        1.00573862569331
C           -2.10826592734096        1.11013052889098        0.12527625356704
N           -3.35716891806349        1.61212367617244       -0.12520373680993
H           -3.51254649712557        2.59636403272329        0.00677921196339
H           -3.92064331991270        1.15235176890185       -0.82192123255707
H           -1.84379028137508        2.59769097707774        1.63779443080278
H            0.53396619731084        2.63338865774301        1.71445072642988
H            2.03118433221367        2.77111161835207       -0.44279451150222
H            3.44027330033168        1.61174932866035       -2.00170895128080
H            4.26172997479615       -0.57679916006330       -1.60355609916864
H            3.76329764864181       -1.82460897096925        0.37597201420981
