28
 energy: -49.837445506133 gnorm: 0.000857450444 xtb: 6.6.1 (8d0f1dd)
N            4.25913573695712        1.78649043196164       -1.66926146607262
C            3.44393676816994        1.14380165404798       -1.17555663386837
C            2.43739321781513        0.37534127685238       -0.56165433441920
C            1.33837633935471        1.10471839057149        0.02553428658983
C            0.11230809995070        0.59680967630198        0.26281446113408
C           -0.96080466163917        1.39928171305620        0.90023206447593
N           -2.12879005940238        1.57279882570921        0.39240783134192
C           -2.62668063318658        0.88142055346158       -0.66562220516625
N           -2.48793387802169       -0.38130414199106       -0.93241919138964
C           -1.53396079295739       -1.17598119388009       -0.37921182373777
N           -1.88119468377220       -2.53100170425812       -0.39396413916336
H           -2.69032062763967       -2.68497533942698       -0.98000214751573
H           -1.12179138056380       -3.15867913217917       -0.61979335106815
C           -0.31006185832381       -0.78036225057244        0.07671753962861
C            0.68229743358927       -1.73393720709357        0.63707572346838
N            1.90041643854398       -1.84625341089720        0.24454657370064
C            2.58633750705212       -0.98528652067989       -0.52389822608776
H            3.43208824427962       -1.43748361128475       -1.02899836807954
N            0.24859860543718       -2.49917474744338        1.66201660830318
H           -0.74128845609433       -2.62922598311325        1.78319878503548
H            0.88399405416235       -3.16728834556651        2.06496918972267
N           -3.47988980026024        1.59595229979407       -1.44657401265136
H           -4.07439057229263        1.07406313514015       -2.06631390196854
H           -3.81406751213071        2.47167329673574       -1.08482853456768
N           -0.67832499238283        1.94123005660406        2.10019386762007
H            0.27168082784709        1.97225374779166        2.42539154036500
H           -1.38107029026044        2.48890599154321        2.56721399947428
H            1.51062713156748        2.15841025401480        0.21208297589501
