26
 energy: -47.178973700169 gnorm: 0.000817884412 xtb: 6.6.1 (8d0f1dd)
N           -3.42894147848998       -1.73736748260882        1.40834219140859
C           -2.79314381110625       -0.87614338695635        0.99203409899653
C           -2.01679948962668        0.19377979790868        0.50216915843889
C           -2.52340137598523        1.49292290346798        0.69019178732753
N           -2.21059489667568        2.58973921109139        0.06877631040999
C           -1.16364675690738        2.77459709219523       -0.73653318182024
C            0.01436624557362        2.08242504824110       -0.80512281959832
C            0.29934037248127        0.79651775560091       -0.25921852695791
C           -0.78101580404566       -0.16721115327745       -0.08212430599624
N           -0.65409641676870       -1.41782727012721       -0.46973109594378
C            0.37006305767269       -2.22908609250871       -0.54821887473366
C            1.60090132993212       -2.06044518156572        0.13270639980810
C            2.15426387062438       -0.83680806099959        0.43640103707817
C            1.61524427419095        0.44461533806711        0.02469372702882
C            2.56467380362547        1.48424171521702       -0.01397897100380
N            3.37657630623496        2.29963194571256       -0.03632607697557
N            3.34530065485492       -0.79899963357890        1.08069885599870
H            3.84311114609034        0.07026792415296        1.17302111698490
H            3.83451652751958       -1.65482074709184        1.27355798057000
H            2.18466893476999       -2.94604672881355        0.34222746934798
N            0.17111187103357       -3.35378613750643       -1.26881792612951
H           -0.75466078314095       -3.53017576140865       -1.62027836251855
H            0.82019020175080       -4.11702739136419       -1.20769489699636
H            0.83374438685294        2.56068933109122       -1.32824393674637
H           -1.23841735619885        3.69458493647076       -1.30809367627954
H           -3.36997535216286        1.58976093269358        1.36516709320368
