26
 energy: -47.180389008892 gnorm: 0.000812196215 xtb: 6.6.1 (8d0f1dd)
N            3.27129206143657        2.17859955056088       -1.10159203569868
C            2.17958755173659        1.96465095568309       -0.81649774839489
C            0.83103346809574        1.71603879542458       -0.48796298810077
C           -0.10356242293645        2.71409590663602       -0.82502425688330
N           -1.29995149377089        2.91118014376035       -0.35804946100691
C           -1.99586165254259        2.08803402650961        0.42183580054596
C           -1.88424589541231        0.72562929694445        0.56657613221023
C           -2.91365303930678        0.05587396525679        1.25488314450063
N           -3.74747213105178       -0.50384021452911        1.81422952661636
C           -0.79194986086987       -0.11432419630208        0.09820104275004
C           -1.03793945183924       -1.41340701429619       -0.23113704120350
C           -0.12003427583716       -2.46273242765474       -0.57240006425078
N           -0.65757740172042       -3.50758889568177       -1.24729029153811
H           -1.64513032709239       -3.54140239757856       -1.42480663515293
H           -0.11005242801829       -4.32982163686294       -1.42694911951163
C            1.19752852204940       -2.52802230425919       -0.17482128158285
C            1.84160120374480       -1.51962933438612        0.58735135473864
N            1.58254727518201       -0.23881134593639        0.52351068787756
C            0.55739405070502        0.44414130157374        0.05917863569553
N            2.87424372079559       -1.86754800617858        1.38432135729628
H            3.41175450853634       -1.13110450577084        1.80878424597184
H            3.26408420291939       -2.79122543561967        1.33979066011136
H            1.74130416254029       -3.44562607156437       -0.35205627686088
H           -2.08173062723896       -1.70242072851891       -0.27947028713228
H           -2.83632887379792        2.57417654542913        0.90902342061762
H            0.24568202559475        3.49866184286339       -1.49117994481451
