28
 energy: -50.635768147646 gnorm: 0.000832175568 xtb: 6.6.1 (8d0f1dd)
N           -5.06308343866908       -0.35084744493023       -0.27867384850294
C           -3.91869582727665       -0.23466774076843       -0.19936414243037
C           -2.53329890582665       -0.07421294725778       -0.10284375627630
C           -1.68944766836309       -1.13499260680973       -0.48923044276281
N           -2.27647406228379       -2.23801380973038       -1.01352979924218
H           -1.73580479945075       -3.07088653904096       -1.16375916739879
H           -3.27955040758815       -2.29661106989509       -1.06016250477276
C           -0.29765509861975       -1.19687533062745       -0.29068191894962
C            0.63897802183123       -0.20319452337711       -0.05008230906066
C            0.26755534033009        1.20755415686961       -0.14704234540898
N           -0.87933555900166        1.65310625142908        0.32578654154824
C           -2.04775888141301        1.10924907045401        0.53186160484458
N           -2.88820238548564        1.79112405889152        1.34120505053259
H           -3.85976121036444        1.53602864829707        1.38550551885142
H           -2.59684622570780        2.68978225561373        1.68363459947071
C            1.08716393702032        2.15787027989260       -0.77144913951741
C            2.43535532930565        2.06274497732707       -1.06441320647653
N            3.35233136461421        1.25974710610618       -0.58065489331772
C            3.15012236193688        0.18087889975881        0.17131005717051
C            1.96877023434771       -0.59339164844302        0.27828920612963
C            2.14274399389662       -1.89480800973352        0.77286465953852
N            2.32464824160835       -2.95469651464771        1.18687156559674
N            4.26584850420615       -0.25700427022636        0.79737419222589
H            4.28045121814777       -1.15299768903999        1.25385978183695
H            5.12937751810846        0.21272396567568        0.58804597552992
H            2.85430506520030        2.83108076850859       -1.70852125604167
H            0.58248453825837        3.07180382459647       -1.05470689738424
H            0.11442410123970       -2.19391631389427       -0.40255793253169
