20
 energy: -35.270371177949 gnorm: 0.000457386475 xtb: 6.6.1 (8d0f1dd)
N           -2.94642119896723       -1.08117896712268        1.00066347023484
C           -2.07838524317512       -0.47072745430058        0.17144519239671
N           -2.54946166902056        0.61327897324457       -0.46906988143319
C           -1.71170737111512        1.48488966954309       -0.98403608479267
N           -0.45939788714372        1.69645717239596       -0.67154315317770
C            0.41877778364977        0.86831362921594       -0.14822920282291
C            1.49037858089785        1.25496074131582        0.65747377798201
C            2.66598097306953        0.53917121750910        0.82733421962386
C            3.13150554366968       -0.54399015207634        0.08922320920662
C            2.42082735288111       -1.22688256206017       -0.89643805273182
N            1.12307841340815       -1.30882187705986       -1.02805908961261
C            0.21864504455020       -0.57420535130779       -0.42427912021507
N           -0.92425008889854       -1.08250924788521       -0.03080486109803
H            2.97260121700394       -1.85667225952714       -1.58671202819710
H            4.16135408725963       -0.83682116744805        0.23973976237830
H            3.36964876231524        0.96112139243790        1.53536299966292
H            1.38748299893451        2.19692522109575        1.17980197718971
H           -2.15281199105205        2.22300571093741       -1.64609520872708
H           -3.89748052394570       -0.75724376554268        1.00614673228522
H           -2.72484316782123       -1.99898736046529        1.34394124224816
