22
 energy: -40.287924197101 gnorm: 0.000723359816 xtb: 6.6.1 (8d0f1dd)
N           -5.06971446336879       -0.09820898150833       -0.03269590826171
C           -3.92448816231192       -0.02888704260318       -0.03240124692521
C           -2.51690298057159        0.06433245489419       -0.02331951669609
C           -1.79859841303140       -0.94338146348683        0.65236087989036
C           -0.44599511184051       -1.20042791371881        0.61560642012218
C            0.57808195706611       -0.36793211154252        0.12325500507833
C            0.30663028909330        1.06911585117371        0.02571889398984
N            1.10169268458028        1.91409289635021        0.65512700959594
C            2.38699311256065        1.99243096216853        0.70217023077384
C            3.29103006559494        1.21635316908925       -0.05095453686348
C            3.01428391425591       -0.05861332483434       -0.48393753220930
C            1.84674643303520       -0.82434492560469       -0.26650175129987
C            1.96224713417837       -2.20726505559127       -0.53625769691941
N            2.06441919722791       -3.33079632713333       -0.74681915683990
H            3.83253299692544       -0.60685688753209       -0.93687559933574
H            4.29841549994820        1.58763951845939       -0.16625521498862
H            2.77970097460806        2.75082854462030        1.37080988251721
N           -0.71447742056576        1.52360196290319       -0.64462831033192
C           -1.92259260069519        1.06822241861837       -0.80001293310998
H           -2.51920865180983        1.58399157081207       -1.54405807316851
H           -0.11999411262821       -2.14214223440180        1.04050627572337
H           -2.41166333735071       -1.68647988743055        1.14849580295929
