26
 energy: -42.380368723513 gnorm: 0.000602353816 xtb: 6.6.1 (8d0f1dd)
N           -0.50195750662543       -3.55104878280132        0.77495137101768
C           -0.55495809172212       -2.42999330429193        0.51064043258752
C           -0.67557319803124       -1.06946736141122        0.19449250707737
C           -1.97125717041630       -0.55889901797294        0.18027933704543
N           -2.38821322820476        0.63676660576048       -0.28704042894577
C           -1.66574771499543        1.71933730144829       -0.33163717308659
C           -0.34383781902814        1.92784978493362        0.18868966306614
C            0.67356812394843        1.02605943892624        0.28940211123102
C            1.90444090664941        1.49571902770223        0.89172274621048
C            3.18491186890055        1.15448568004889        0.62834126140901
C            3.66572963744779        0.21282179676883       -0.31632806621296
C            2.93468915699459       -0.78479685536034       -0.88299869754236
C            1.58376449883748       -1.11275664770860       -0.64411339055041
C            0.56740064258051       -0.37351812189887       -0.09024621227730
H            1.29968603419430       -2.10340697635413       -0.98056805868191
H            3.46092898288099       -1.47142946618323       -1.53516360487297
H            4.72192011557169        0.26258558331294       -0.54447543787736
H            3.95020511595926        1.69637951350388        1.17187468376493
H            1.74865151365945        2.27310887912896        1.63156084104701
H           -0.11746320628066        2.95468796215835        0.45109546965582
N           -2.28612528841520        2.80748492847191       -0.84069912280198
H           -1.80043085893270        3.67832585769607       -0.94854259812688
H           -3.20953779408020        2.69869513261016       -1.22063920721245
N           -3.00206897138515       -1.34310879757042        0.58571797004617
H           -3.93260454375763       -1.01966762263323        0.38955267802105
H           -2.84474924394851       -2.31883332878367        0.77208153650935
