21
 energy: -39.783962739508 gnorm: 0.000742475581 xtb: 6.6.1 (8d0f1dd)
N           -1.61011707468842       -3.06278281528947       -0.51328835314956
C           -1.34150436585931       -1.96610372841269       -0.30012205927520
C           -1.04559589654374       -0.61014485082108       -0.06310406702144
C           -2.09930832205781        0.33640793447828       -0.18132256129666
C           -2.05938708789881        1.66322327923664        0.30352014317113
C           -0.96862399321902        2.39479266400356        0.72077543294670
N            0.30945100721263        2.19714188961805        0.44877601867042
C            0.79839536574495        1.08108972067472       -0.00625149807649
N            1.80304428443904        0.99241537217515       -0.83986933444677
C            2.73634346350513        0.09311929555265       -0.98221261180955
N            3.18427177457101       -0.75900338183968       -0.07597378828666
C            2.40075992160539       -1.09987450660344        0.93224472810327
N            1.09675275186793       -1.04330960952241        0.96271687863749
C            0.25603608651603       -0.27802470062292        0.32668396845994
H            2.86700872128951       -1.62381897097423        1.75821510472494
H            3.28481370494273        0.13445710582378       -1.91684285310051
H           -1.15720213716541        3.33617195195433        1.22447997360276
H           -3.02326968240033        2.15005733913124        0.38081398060425
N           -3.27981553566067       -0.11347489091407       -0.65312804421715
H           -4.09133769376852        0.47879351503310       -0.63708966719984
H           -3.39312012303246       -1.08593657758115       -0.88880243544094
