27
 energy: -46.885545126883 gnorm: 0.000649282335 xtb: 6.6.1 (8d0f1dd)
N           -4.00952386479455       -2.64932691757786        1.06241541108203
C           -3.14747772330960       -1.98165713268335        0.70482649423804
C           -2.08828140584309       -1.14981384403028        0.27123504959386
C           -2.49951195616514        0.03753755464499       -0.44817111202903
C           -1.75237301983963        1.14497267776595       -0.64927213176167
C           -2.33569506043201        2.22525381944205       -1.35266565102655
N           -2.79344897198706        3.11464312123617       -1.91434575480159
C           -0.42794692623848        1.40835425064005       -0.10715887639834
C            0.51224221590543        0.50947609855353        0.22659660582828
C            1.73685214836327        1.00221443401550        0.89918807750047
N            1.52451571891049        1.94483459756497        1.86703491582840
H            0.59577418145156        2.04856140722922        2.23782061660614
H            2.28597052609160        2.17547381749482        2.48286470691776
C            2.99230677318644        0.65706248006985        0.53020912088759
C            3.32099873676677       -0.31455645177593       -0.48632282578540
N            2.66769801699267       -1.40147259662620       -0.75412120797413
C            1.47277855183137       -1.74266861000571       -0.24329413662131
C            0.41845162892814       -0.95084055574424        0.10504111497506
C           -0.82060343435016       -1.59057393743250        0.47942900233709
H           -0.71534675438899       -2.56655644425518        0.94357218742476
H            1.30608775045540       -2.81545975253065       -0.26830668161295
N            4.51993127413526       -0.16217730899043       -1.10804331725877
H            4.99770253296687        0.71977729115023       -1.07355529789632
H            4.72863602734780       -0.79528647749568       -1.86040240810438
H            3.82502887570999        1.16353499141881        1.00154400451923
H           -0.19932629946371        2.46030071661308        0.01628369944590
H           -3.51402235193141        0.02134242270845       -0.82815323261387
