30
 energy: -50.057849797391 gnorm: 0.000459406893 xtb: 6.6.1 (8d0f1dd)
N           -1.81512838716462       -3.33723165113153       -1.86727956237362
C           -1.76366927941603       -2.34548737952797       -1.28521652046945
C           -1.71875403783564       -1.13013568208491       -0.57637946595619
C           -0.40228676648219       -0.76867983297125       -0.06673518967199
C            0.41791581699467       -1.80863097938267        0.26539654043224
C            1.78870530432192       -1.83599310586686        0.65358449967787
C            2.72164745720112       -0.85359296875526        0.42162225734873
C            2.51962024882180        0.39721698912816       -0.19769519626029
N            3.64962396451576        1.06953784372648       -0.54984853926512
H            3.57670954981744        1.93823104253764       -1.05085571025096
H            4.53897265125925        0.60694407650578       -0.51539051482068
C            1.29502123451027        1.04270597359233       -0.39273383665603
C            1.36330622741141        2.30842095354869       -0.99497131962822
N            1.45164646332236        3.33841462273761       -1.50666267052006
C           -0.04100789605741        0.63490640569737       -0.00904591013546
C           -0.90050103129334        1.65282012296680        0.33010991735889
C           -2.29505283640148        1.68015995695065        0.58154271019437
C           -3.21483607549937        0.71053910671316        0.21213016122258
C           -2.92798266871088       -0.49048658471545       -0.42606773018403
H           -3.78182547446458       -1.02272249664156       -0.83146521900984
H           -4.26021896153466        0.94476898558022        0.36431497910666
N           -2.76388317770707        2.80731111085462        1.19028327731462
H           -2.16463880760728        3.61147245774218        1.25906373907227
H           -3.75533309071616        2.97212568081121        1.21125719281442
H           -0.42813922596971        2.62196164731592        0.45139563418397
H            3.74919004805971       -1.08737831447186        0.67297752150037
N            2.19685839862305       -2.98621958028665        1.26203170795872
H            3.17946597802011       -3.15549534387164        1.38659245338168
H            1.59053933599297       -3.78733081629229        1.24725283039456
H           -0.04702325531834       -2.78824018591135        0.25703301483943
