29
 energy: -45.522023149678 gnorm: 0.000432608312 xtb: 6.6.1 (8d0f1dd)
N            4.50901448406512        0.01448174899235       -0.73216483567838
C            3.44437586494812       -0.18386417469929       -0.34203829213850
C            2.13614339620416       -0.37913050976512        0.13454978881416
C            1.97475711544688       -1.37477546786276        1.16807113069717
C            0.86088000345206       -2.09090571961132        1.40800033075425
C           -0.39024355745489       -1.97870446956329        0.71539995643538
C           -0.89921602082727       -0.87280577695640        0.13620053683803
C           -2.16433641742192       -0.94075466928898       -0.61650853031388
N           -2.27448107466657       -2.00521411259577       -1.47769008893240
H           -2.98524210489420       -1.96337600872367       -2.18956608425819
H           -1.42864324484401       -2.49238113047148       -1.72088351219923
C           -3.20194424003815       -0.09170148080245       -0.41637411205752
C           -3.22755777279086        1.03361331460783        0.45572818844452
C           -2.18056358367520        1.77155553791312        0.88310816225442
C           -0.80183856780878        1.60403146109353        0.50676344450474
N           -0.03432458780111        2.77700311983922        0.50682183448328
H           -0.42969359006505        3.51741547721704        1.06783758420815
H            0.94774986749174        2.63955543863383        0.70187042933762
C           -0.23648513535085        0.42702816340791        0.12836218224577
C            1.13933507642049        0.39359080692611       -0.40514829820621
N            1.34812618964700        1.16091999932576       -1.51123917640245
H            0.70908417289593        1.91759087947529       -1.68798402268748
H            2.28367543852437        1.23832454147210       -1.87808076684266
H           -2.39219464434473        2.64891051701997        1.48242318392197
H           -4.21692776245743        1.36895846365016        0.74202193313105
H           -4.12880914626898       -0.31231203053536       -0.93193105456035
H           -0.99818366975666       -2.87494158380943        0.70291196952508
H            0.91776419639858       -2.88314414378922        2.14334412661113
H            2.87931506537571       -1.62046418569711        1.71052305867350
