32
 energy: -63.914653876519 gnorm: 0.000867211848 xtb: 6.6.1 (8d0f1dd)
N           -5.58880236363952       -0.56197215752447       -0.74916587752610
C           -4.46263593813943       -0.53663791482918       -0.52593363741375
C           -3.07903250069146       -0.48009150276636       -0.24913202355599
C           -2.33524686900368       -1.57346880393511       -0.65427858656045
C           -0.99936165097181       -1.86997699362769       -0.39589103583171
C           -0.57428902891384       -3.18558253859483       -0.69619882907951
N           -0.23182803071820       -4.25073816625368       -0.94865896786888
C            0.00898358059784       -1.02281568365782        0.11655850957322
N            1.07170936638610       -1.60021744673087        0.62165181572435
C            2.32023440558787       -1.24372343325320        0.76577103787954
N            3.04579170691797       -1.92976728272409        1.66466354372792
H            4.04681695360304       -1.83201684926090        1.68867667296902
H            2.61585785109818       -2.70862005351303        2.13406185526752
C            2.97135954074683       -0.26469839898003       -0.04996058714089
C            4.36264003988036       -0.37387338594611       -0.19645723578853
N            5.50376689862570       -0.47354428140321       -0.30462804411675
C            2.31856066282063        0.83562443763969       -0.62399868138310
N            3.04265751259325        1.67116674722966       -1.39311903311138
H            4.02793520357520        1.50650582085070       -1.51836851833212
H            2.64576576674594        2.53518684095856       -1.72397077840965
C            0.95658097480471        1.20675066927256       -0.35649480335251
C            0.63212956108234        2.52620059826986       -0.74768395476572
N            0.41159148073961        3.57742450306278       -1.15636072899704
C           -0.11322495704894        0.42877043710196        0.09930668305380
C           -1.29058843141386        1.08452722270971        0.56277099761252
C           -1.07041806779699        2.31411924295321        1.22164465276533
N           -0.92591556929854        3.26793472709841        1.84662095302931
C           -2.63045919005479        0.67434468654860        0.46955951324494
N           -3.57915218218741        1.45585912816210        1.02128283984153
H           -4.55296836186734        1.24688941454469        0.87426715871552
H           -3.32627283251707        2.32717697087266        1.45840101534107
H           -2.89268034904129       -2.35479779227352       -1.15962934101249
