33
 energy: -56.423800860511 gnorm: 0.000679722159 xtb: 6.6.1 (8d0f1dd)
N            3.76822472162414        1.79856652102275       -1.86382047349767
C            3.04555357429990        1.18429636079095       -1.20605668635323
C            2.15082730344208        0.43840519470987       -0.43202620978121
C            0.97254813412403        1.14995119397716        0.05053405434440
N            1.15060243130985        2.52085132736325        0.28259190878309
H            1.92837867298987        2.91705963937033       -0.22754612414877
H            0.30909962936631        3.07121927049014        0.17979420204537
C           -0.20936758121219        0.55815198790854        0.30926492802119
C           -1.35274802355440        1.27736059947052        0.91698788219632
N           -2.50623941648951        1.40610573023162        0.35889980554160
C           -2.87509545685504        0.71326075989349       -0.75039953448700
N           -2.62222960568537       -0.52301029795746       -1.04551401201377
C           -1.68773825940401       -1.29037345328072       -0.41965938331226
N           -1.99026746709293       -2.66645931752922       -0.50377733712477
H           -2.77838583721675       -2.79757772204608       -1.12540328377662
H           -1.20396710588158       -3.23342872513629       -0.79554101146027
C           -0.53621898817491       -0.86398949839106        0.17659977371265
C            0.37978197668478       -1.78988782388257        0.84791400555064
N           -0.20490493169574       -2.69139980085062        1.69007896777530
H            0.35560468055789       -3.43753415076470        2.06710047280144
H           -1.18605128629454       -2.87232511310923        1.55254392421225
C            1.73183927050225       -1.75541669196237        0.70232927521557
C            2.50835001217275       -0.85174390709792       -0.08547416009275
N            3.76521247839855       -1.29472128132525       -0.40912642754204
H            4.30613884651200       -0.74381042549019       -1.05543004213669
H            3.94505090713751       -2.28326998248115       -0.39338222536117
H            2.30162409059943       -2.54291793748631        1.18315549383176
N           -3.72372920040689        1.39289069286913       -1.57896707430962
H           -4.17731580469399        2.20072500641021       -1.18802893801012
H           -4.25497068028720        0.83013864914792       -2.22155892706204
N           -1.15604319892086        1.78317824403670        2.15057316273155
H           -0.21985540507888        1.86503545087614        2.50369375561726
H           -1.91240021257644        2.25094917042332        2.61963735198949
