28
 energy: -46.602613251621 gnorm: 0.000466634116 xtb: 6.6.1 (8d0f1dd)
N            3.92226111553512        2.67895703334529       -1.49236928964105
C            3.32807603625658        1.81890085889944       -1.01633453329006
C            2.59307798399655        0.76695374442438       -0.43030604088759
C            3.22164800021810       -0.43317761147581       -0.25637084856284
C            2.70419257441357       -1.57232266081019        0.40487190358755
C            1.39638813695120       -1.89366648708466        0.60696686379930
N            1.06664142442809       -3.02424836634553        1.30104420534093
H            1.76422361441237       -3.45397829660288        1.88473877149256
H            0.10404965465881       -3.17217967371307        1.54952906702306
C            0.25030410166259       -1.16710359418353        0.02650824673487
C           -0.73405421052319       -1.86348395234873       -0.58294858043643
C           -1.96230002742399       -1.37827127691481       -1.12647061634462
C           -2.65630883696010       -0.27898207099966       -0.73663916863247
N           -3.82271844482382        0.08914140248888       -1.36613688300636
H           -4.45486992925106        0.69906307134381       -0.87397405433974
H           -4.25095261409032       -0.58774665154891       -1.97492252547011
C           -2.25117758767414        0.56155532529899        0.39196333830020
C           -3.31007673139086        1.19650921750116        1.08585696702067
N           -4.18335131581106        1.69178532787983        1.64182818886225
C           -0.99629906651179        0.80185668240969        0.82449881972751
C            0.24003854376631        0.27814592949680        0.25261315654163
C            1.27853443556187        1.11295556878005        0.04706891146683
H            1.11344835673851        2.17133032964853        0.21269170578666
H           -0.87845213654955        1.46640633993973        1.67452270622405
H           -2.41519469430734       -2.00057205466423       -1.88813238473385
H           -0.55701634620815       -2.92027588269804       -0.74406056273386
H            3.43970633077257       -2.28363199157797        0.76097316091981
H            4.25744675595388       -0.49631615319576       -0.56712867615014
