32
 energy: -53.485002653632 gnorm: 0.000931831594 xtb: 6.6.1 (8d0f1dd)
N           -3.93106444261911       -2.53581358521242        1.96740898003729
C           -3.34777500314804       -1.77063146273535        1.33868505697677
C           -2.62574567054671       -0.84074589687780        0.56502335278561
C           -3.27858225920214        0.27975279249292        0.13348970386330
C           -2.77363981586069        1.27390157815919       -0.73783772736004
C           -1.46260748618193        1.58389642876328       -0.94432084684506
N           -1.08230841383332        2.43287693369423       -1.93988611051027
H           -1.78594141621454        2.90038481828938       -2.48594612537205
H           -0.17370004137415        2.85945206411001       -1.88044508517531
C           -0.35310515121546        1.03404381416046       -0.14089585386230
C            0.53750956501602        1.84530469937662        0.48787150864299
N            0.33938060972398        3.23475561709568        0.47279805834258
H           -0.63216046176934        3.51423891357309        0.46232904356928
H            0.85856130007874        3.71951726298672        1.19068171174770
C            1.70513636828778        1.40056811998170        1.19179245527835
C            2.45013165264873        0.29191141076181        0.95068297142156
N            3.54378957200090        0.00951673248359        1.73913461088988
H            3.90654082428543        0.75754867693438        2.30640354252609
H            4.23280069500597       -0.62391369981342        1.36680707467100
C            2.20703898210210       -0.65423220786516       -0.12975282057504
C            3.33672305016568       -1.31556318449227       -0.63964595779690
N            4.25941255329126       -1.85628831591305       -1.06660850323090
C            0.98468101507162       -0.98205438579964       -0.65772885253852
N            0.87297552759233       -1.83248581196446       -1.70647001864732
H           -0.03423550744698       -2.16178809031042       -1.98184556641701
H            1.69075243608034       -2.28443551762294       -2.07976539232081
C           -0.27932238094374       -0.42509794847625       -0.15217551326561
C           -1.29400031923698       -1.24436444672203        0.17924223012605
H           -1.11477727204762       -2.31359663994766        0.19451691716394
H            2.07087525419895        2.07159906638895        1.96051644944805
H           -3.51327540321088        1.84998665874268       -1.28109773275527
H           -4.32388002009876        0.37204118025792        0.40455876768141
