27
 energy: -46.108866873360 gnorm: 0.000584515502 xtb: 6.6.1 (8d0f1dd)
N           -0.17007521732153       -3.53100311326121        1.63735572256849
C           -0.53595754839801       -2.53231499034083        1.20007046746862
C           -0.99660669395326       -1.30287395760423        0.69309013411150
C           -2.37559871480275       -1.07504619762995        0.73890156955152
C           -3.11117739171700       -0.07540666820854        0.15571101219495
C           -2.65394910155949        1.09716057320815       -0.48593011847537
C           -1.35524693154846        1.59237827496174       -0.47931079308190
C           -0.18874007067903        0.98492995631310       -0.01041577759482
N            0.80452033253935        1.76257479651162        0.36270451197323
C            2.09486541639712        1.53349703528461        0.55046048965323
C            2.85999639202586        0.55998982909052       -0.10132543025553
C            2.26276513004724       -0.55734873938195       -0.68599757411385
N            1.06433127131453       -1.03059220360245       -0.37565419041156
C           -0.01668496507231       -0.47181985240969        0.09780804747677
N            2.96383131108430       -1.32495474756548       -1.57018383144781
H            3.96377273315276       -1.22507844490120       -1.59805022795592
H            2.58871582854436       -2.23902230466941       -1.76203282686265
H            3.93366105197261        0.67109639905828       -0.14237491239734
N            2.71335696033150        2.42781315177720        1.37339126891621
H            3.71444060608266        2.50309479828073        1.34812466367601
H            2.18534034109788        3.23400296240318        1.65900721580466
H           -1.22778498253007        2.61679420396084       -0.80865590641614
N           -3.60822304478951        1.85738871328352       -1.10092594569121
H           -4.57839971682922        1.66285502884577       -0.92622199830321
H           -3.37218271294573        2.78709665094000       -1.40043712167728
H           -4.18796346133674       -0.18378411168592        0.20057214299689
H           -2.94371889170510       -1.85760475395567        1.22979990018549
