24
 energy: -48.538205186082 gnorm: 0.000603646214 xtb: 6.6.1 (8d0f1dd)
N           -0.47458758958684       -4.02060567541286        1.20330274627833
C           -0.86857220448880       -2.98707081578851        0.89934757147483
C           -1.34726014556429       -1.71101970277269        0.53809468355164
C           -2.71546636996236       -1.42390707798706        0.66192269574674
N           -3.38915749167079       -0.51870732975799        0.01092670324443
C           -2.99492966751742        0.54929820243820       -0.64198453280887
C           -1.81783572371113        1.26694169946836       -0.44714632558399
C           -1.72442642003667        2.59776135947244       -0.90343124683854
N           -1.63819308154515        3.67108205045387       -1.29881342344618
C           -0.67788754789579        0.69972176575838        0.18647842584221
N            0.19944233738377        1.40946267249286        0.81646609732707
C            1.45439335114046        1.23082279680765        1.15068921626116
C            2.36839634764041        0.47451410510568        0.42986133425810
C            3.75170643852012        0.65507509183712        0.59313945569332
N            4.88934475881647        0.77208467355107        0.69783188971341
C            1.90832851394210       -0.50429830324937       -0.51901460658305
N            0.74283934980213       -1.09971603154928       -0.41273538130965
C           -0.41257237842614       -0.75897702394975        0.08324912190761
N            2.73702779245638       -0.94310395041293       -1.47843082980194
H            2.45402208049163       -1.71790837828307       -2.05395028838790
H            3.69638024862664       -0.63991300663718       -1.49172497165589
H            1.79437193927196        1.84684985623322        1.97458204190994
H           -3.75394912534647        0.97523198338036       -1.29014079097389
H           -3.32712411458586       -2.10082005508558        1.24961403870737
