27
 energy: -46.896451792745 gnorm: 0.000712887686 xtb: 6.6.1 (8d0f1dd)
N            2.98032570097720        2.31060247031995        1.26719025264661
C            2.44291776520971        1.41661097331698        0.77909529325012
C            1.83379836414566        0.28014317889659        0.21246617412351
C            2.65656385347528       -0.85300004443987        0.13148307706403
C            2.31109152677420       -2.08009934352153       -0.48528634072857
C            1.05643032016303       -2.51247336879342       -0.80624200184875
C           -0.17745377461413       -1.89365573717575       -0.58065385346730
C           -0.48442113893163       -0.58566775750889       -0.24759221773348
C            0.48219611753829        0.49515060258931       -0.22722121751671
C            0.16687559531681        1.79259906169427       -0.61297669416443
C           -1.07563575468202        2.34505442748577       -0.94143226192843
N           -2.27746682010604        1.97993755445701       -0.61045234634316
C           -2.58293260329507        0.86379791272753        0.07783363139311
C           -1.84953924723795       -0.33057433509073        0.14127002070122
C           -2.54292451880774       -1.42548900006995        0.68351954905138
N           -3.15506337880336       -2.28470679433721        1.14670782006847
N           -3.79850898102657        0.92829402844926        0.66041359246018
H           -4.35262333335397        1.74958468178918        0.49212810137259
H           -4.20570995614195        0.12263650447841        1.10336176208718
H           -1.05298670694780        3.27860431663171       -1.49752405414112
H            1.00753999054694        2.46146017836308       -0.74972047510321
H           -1.03400533071777       -2.54269855862136       -0.71598134452639
H            0.99324869316798       -3.50835263634205       -1.22723240305705
H            3.13444603683990       -2.76232059333932       -0.65226229256774
N            3.91703084028065       -0.76279917455497        0.61622737634455
H            4.24732125745231        0.09453217457908        1.02574504667751
H            4.55202109377132       -1.53328771348526        0.51701802998996
