31
 energy: -53.765188363738 gnorm: 0.000810169221 xtb: 6.6.1 (8d0f1dd)
N            5.22679330564609       -0.09997767694728        0.77500795464737
C            4.16238984100920       -0.22402952525081        0.35455267668157
C            2.85610107681402       -0.33876352487184       -0.14574360354669
C            2.66511305068291       -1.16846591919209       -1.31622272275833
N            1.63349917664272       -1.84240980921117       -1.64783701887251
C            0.45853596543656       -1.84982890645382       -0.95920217472133
C           -0.13466466646277       -0.82545334252038       -0.30634987995377
C           -1.43412027780788       -1.02555112115986        0.34675795266515
N           -1.53131439936735       -2.12000189774888        1.13736458180598
H           -2.40377777014224       -2.34473553582924        1.58695569732835
H           -0.78510793593781       -2.79201144594732        1.15013546095088
C           -2.49370270402580       -0.16524568644805        0.19724656304725
C           -3.70453727104594       -0.51199861639255        0.81975092686296
N           -4.69183932732329       -0.79889889856008        1.33861165350240
C           -2.51022573375820        1.05616056285415       -0.59554510181024
N           -3.73483952880495        1.38966492504864       -1.12330666839186
H           -3.85917945618483        2.33253732700940       -1.45151689051996
H           -4.55083734836220        0.95131307933859       -0.72812616186958
C           -1.43845354292528        1.86267512261956       -0.81023206667455
C           -0.09211683718788        1.68423012158032       -0.35453491944204
N            0.63157355912744        2.86522912871806       -0.16618965480032
H            0.23770481923341        3.66472198585016       -0.63909885177180
H            1.62777447317660        2.78904228871520       -0.31325512881914
C            0.49716336757276        0.48064258183182       -0.11067838894380
C            1.85133193619874        0.38830912248123        0.45834759169863
N            2.06926037685984        1.06823229831427        1.60472766238163
H            1.38350673899827        1.72984380818141        1.92391820283703
H            2.98158542427601        1.05731723468880        2.03169630283469
H           -1.63246194011820        2.79351099652469       -1.33056532208649
H           -0.07649944696426       -2.78611883049550       -1.07754170236576
H            3.53637955842299       -1.30796344445057       -1.94985549589760
