25
 energy: -48.250288330948 gnorm: 0.000793003020 xtb: 6.6.1 (8d0f1dd)
N           -3.34420489058981       -2.04601098733728        0.88655912512754
C           -2.26419251125017       -1.72141889382941        0.67971605987775
C           -0.90956413548298       -1.34339450666600        0.50980380154832
C            0.04322701570843       -2.38244004113881        0.72910434804334
C            1.33679046534361       -2.42147793028302        0.33131741854189
C            2.11984755550287       -1.40023622432747       -0.30314458810579
C            1.84462840620639       -0.03279422370657       -0.25994421504983
C            2.82664726493368        0.85317246384126       -0.74838431790987
N            3.63862072603939        1.54690283275722       -1.17088835766327
C            0.69093610122386        0.58570207684108        0.31484253597244
N            0.80983432334771        1.72158166402309        0.92117311320662
C           -0.04512301639749        2.68036145077356        1.19301383116308
N           -1.05961459060892        3.05303595936163        0.46200328327652
C           -1.65620386370675        2.22507625029428       -0.39115589310896
C           -1.59639733765761        0.84178365335940       -0.43582621919075
C           -2.47906126439444        0.19987953475469       -1.33565740982772
N           -3.16570710329205       -0.30030508534940       -2.10664186972866
C           -0.63232171613360       -0.03378857982973        0.19162918765493
H           -2.37672276900618        2.70821926743555       -1.04237304603631
H            0.21673826106774        3.31433591833578        2.03226866615988
N            3.26261754621039       -1.80953765291222       -0.88617257382780
H            3.88688414354242       -1.13935695532940       -1.30477669234593
H            3.53067723755730       -2.77757248598719       -0.86700969775929
H            1.86096016667062       -3.35920065725600        0.46711768379639
H           -0.36533207745796       -3.28550505293967        1.16521100020537
