26
 energy: -51.216273818750 gnorm: 0.000744871306 xtb: 6.6.1 (8d0f1dd)
N           -1.16557517079947       -3.39174687721399        1.81187603199306
C           -1.36931755306794       -2.36636613316002        1.33750301019235
C           -1.61818205932152       -1.10339034010986        0.76450789907313
C           -2.87293754626631       -0.51209860966284        0.97813786295636
N           -3.44416132096286        0.47209033061217        0.33923168551835
C           -2.83594609386623        1.25920198536102       -0.56404829143870
N           -1.57870392621960        1.65647116477201       -0.55811326827735
C           -0.57094870926267        0.99699379847423       -0.03576994422905
N            0.46427770705121        1.63320148007444        0.44128835760333
C            1.70945126093363        1.24148498193663        0.63906096122735
N            2.41101788708017        1.95524659900631        1.54288559908494
H            1.97448083892688        2.76027189751602        1.95690244715201
H            3.40683852617706        1.83628716404112        1.61436230762042
C            2.37331001722903        0.23250896132769       -0.11102464018300
C            3.77152997637256        0.22741693414502       -0.15767711078323
N            4.92221446641319        0.22619093467276       -0.20245832370593
C            1.65561382257754       -0.79160535529086       -0.77765020642432
N            0.43017381919131       -1.16636834764728       -0.44762325736757
C           -0.56135897957323       -0.48973774218270        0.05210072674687
N            2.27462009960335       -1.54717791951181       -1.71035339720848
H            3.27129675950433       -1.47024482989412       -1.82428021538408
H            1.81480438542515       -2.38864229637382       -2.01385193893137
N           -3.65259212081668        1.82360891751266       -1.47118467448802
H           -3.29474907562237        2.55655116419246       -2.05744044253520
H           -4.64368053318521        1.69864876138500       -1.36414033905714
H           -3.52490659272566       -0.99978490668105        1.69738525724428
