29
 energy: -55.153504036653 gnorm: 0.000708926583 xtb: 6.6.1 (8d0f1dd)
N            3.38137831914712        2.72266553587839        0.29464820168610
C            2.70459454454637        1.79809566897651        0.20303006812416
C            1.91011449234526        0.63592428878209        0.13756629568948
C            2.51277830498997       -0.57282524383078        0.59871705391689
N            3.66649409387247       -0.44215057942754        1.29705195954974
H            4.22629351436697       -1.25105206070573        1.50007206258853
H            4.08640069788021        0.46708166733145        1.39692120275927
C            2.08062176049371       -1.85861386256511        0.30102118538960
C            0.89710685520660       -2.29773473906247       -0.29952848799761
N            0.83925773938471       -3.59955514338096       -0.66534554331121
H            1.59628579233896       -4.22130553657639       -0.44522596236102
H           -0.03183402773948       -3.99321171040292       -0.98041464194620
C           -0.29052593594294       -1.53453586523936       -0.45291486706826
C           -1.43562009204983       -2.24734307331718       -0.85931284742852
N           -2.31697396523366       -2.86053334807084       -1.27284064610576
C           -0.45155224540412       -0.15464655687466       -0.22998454061091
C            0.63852843054001        0.80406799181175       -0.41044106184789
N            0.40646791352851        1.86607584618350       -1.16750914497110
C           -0.65599322812291        2.57916164834177       -1.34817997003885
N           -1.70366307362104        2.70118698934097       -0.55647558921742
C           -2.10297965227679        1.73244820501085        0.25385653953739
C           -1.68817126351843        0.35716153730396        0.21050188797274
C           -2.56540329990920       -0.54423633659571        0.84273497550600
N           -3.29768244460629       -1.20407346792668        1.43647422171713
N           -3.09000419324153        2.07068964479385        1.10364818599221
H           -3.58898492825500        1.36628792230309        1.62083039056932
H           -3.46528467036427        3.00109206055744        1.03345437593828
H           -0.62873103531720        3.25732019797316       -2.19462034493786
H            2.77916761516167       -2.64709559941287        0.55705513810746
