34
 energy: -56.123237739436 gnorm: 0.000955415598 xtb: 6.6.1 (8d0f1dd)
N           -4.53819403168343       -1.04897821972471       -0.92213367936797
C           -3.49872610747968       -0.70701083127771       -0.55640482488041
C           -2.24693404541320       -0.29246039010645       -0.09278176713571
C           -2.23443938622446        0.80498376969879        0.87779075889544
N           -1.33910957771468        1.71569703839041        1.02128099886009
C           -0.17761327493015        1.80033409834952        0.29700942934296
N            0.20875834849112        3.14089118300435        0.08232835837474
H            1.19529133843771        3.30188190331007        0.24198761985516
H           -0.35678347314795        3.75568909614063        0.65329078797879
C            0.58164888852604        0.77410444881277       -0.15299642385556
C            1.78904577811829        1.01756264773886       -0.96073463242097
N            1.59470979882226        1.81013563738268       -2.06501211593467
H            0.82076098817607        2.45342188192212       -2.01786298435852
H            2.41103947682386        2.13102373348895       -2.56025775668274
C            2.99372261883315        0.46932167113095       -0.68684486159697
C            3.28728069567871       -0.47306959614619        0.35768547624943
N            4.62782422081426       -0.54704651159514        0.70798762016739
H            5.16909693634204        0.29201142597752        0.57655206610452
H            4.83514156519213       -1.04364378913225        1.55959891370295
C            2.41229501282847       -1.36114981205032        0.90137719071735
C            1.05038607952189       -1.58880269935318        0.51273458116707
N            0.60133867428182       -2.90736486613337        0.67655972970713
H            1.16022063606247       -3.44410644275648        1.32340317349961
H           -0.38762983153002       -2.99913536628936        0.86313755063119
C            0.21357499450069       -0.63851917065076        0.01349610431005
C           -1.11667831906555       -0.96861497375329       -0.49617572918429
N           -1.19563819465522       -1.98360249992493       -1.38563883623956
H           -2.07868389603585       -2.24085973029592       -1.79393297313638
H           -0.36939098350436       -2.51016353515969       -1.60168489637561
H            2.81549907459607       -2.06725385114545        1.61954208350607
H            3.84196565818941        0.76955769382543       -1.29080979028866
N           -3.31853343177557        0.86463359015325        1.70794920606462
H           -3.42667255289214        1.71573116420535        2.23399162702011
H           -4.15734258618205        0.38138728245937        1.43229961189942
