23
 energy: -39.211024651192 gnorm: 0.000408929747 xtb: 6.6.1 (8d0f1dd)
N            4.52590416452134        0.42190584074277       -1.18932723626302
C            3.49735140306343        0.22005023975652       -0.72355114924312
C            2.23027225261711       -0.04151557811875       -0.14560036535574
C            2.22629083845491       -1.10461865624668        0.84879729846989
C            1.17499773874921       -1.85693659462937        1.20398535491313
C           -0.15420413283447       -1.76833260446226        0.64981542622048
C           -0.72599402345429       -0.66787678089138        0.14051142924418
C           -2.08457356562212       -0.69551190733932       -0.48091331227741
N           -3.08254317758569       -0.02701787812223       -0.02772316658927
C           -2.99390719027236        1.03577611460418        0.79018279650744
N           -2.08192059988606        1.94270618155960        0.80427954460346
C           -0.87541564246447        1.81073510639679        0.20856959655890
C           -0.16076799104340        0.66967019068859       -0.00840776387309
C            1.19755495953828        0.74481006644839       -0.52285802796282
H            1.39408983985248        1.53342986394680       -1.24170049465657
H           -0.38422303831932        2.76196212422173        0.03201155097212
H           -3.88284620148882        1.22579554063855        1.38037344794878
N           -2.23109384110886       -1.47603364824075       -1.56660672798184
H           -1.50333058419426       -2.10586659101957       -1.85126674799582
H           -3.10574171746022       -1.46753361484333       -2.06245745590130
H           -0.73829137594316       -2.68037650627973        0.68268344326446
H            1.33317268177422       -2.65872070215249        1.91340180344301
H            3.19571894900898       -1.32164337055038        1.27901967535397
