30
 energy: -44.434280194469 gnorm: 0.000746771835 xtb: 6.6.1 (8d0f1dd)
N           -3.35932892203457       -2.31615582502686        0.35327928939185
C           -2.52734053456146       -1.22323751684472        0.19900120397417
C           -3.16049887783490       -0.00034084592609       -0.00147020465252
C           -2.52743624492078        1.22264173982045       -0.20171658346133
C           -1.16424311562467        1.49958726473803       -0.16443525343828
C           -0.00006239835925        0.72378792500092       -0.00084684979237
C            1.16401300410331        1.49971415886965        0.16288782719037
C            2.52724382458736        1.22294700440149        0.20011138837723
C            3.16047201026563        0.00008745904801       -0.00036510088579
C            2.52747947290431       -1.22285760842375       -0.20106084379202
C            1.16427285876999       -1.49980944938730       -0.16431065114006
C            0.00003589359315       -0.72404083787145       -0.00098269629806
C           -1.16409719567882       -1.49999785744046        0.16220071754063
H           -0.96007088385248       -2.56102496058354        0.27394149602052
H            0.96039060213379       -2.56084378266234       -0.27624712751430
N            3.35961530491149       -2.31563594594151       -0.35553878411516
H            2.95090876376175       -3.15198436708218       -0.73792936904026
H            4.30548592884823       -2.13076752455420       -0.64498603419295
H            4.24349664248324        0.00016103351594       -0.00017729088077
N            3.35917839889826        2.31583763523596        0.35487883305081
H            2.95022595258206        3.15213093067954        0.73712703019206
H            4.30497318285596        2.13109685383903        0.64465519873033
H            0.95994790432731        2.56072066799002        0.27475497069185
H           -0.96032189536654        2.56064242909685       -0.27610141232136
N           -3.35951819994072        2.31544762213775       -0.35628614860436
H           -2.95067816397642        3.15186790026314       -0.73837640423579
H           -4.30528796026365        2.13063337138905       -0.64609624965020
H           -4.24352335829547       -0.00041463676138       -0.00166169532700
H           -2.95051015297753       -3.15252023864315        0.73551459253786
H           -4.30522570333831       -2.13146929217707        0.64275596504484
