27
 energy: -46.905813388402 gnorm: 0.000949305892 xtb: 6.6.1 (8d0f1dd)
N           -4.95783595921479       -0.55828315815770        0.99128687970810
C           -3.89730619762652       -0.20977762496906        0.70897475192679
C           -2.59698493363285        0.16724132682093        0.35555924895715
C           -1.83170062308638       -0.73963169226757       -0.45754242621434
N           -0.53465784233886       -0.75008351939798       -0.53352107522055
C            0.43816311085416        0.06261742824442       -0.15268316452434
C            0.26456247940579        1.50290302572659       -0.15920175606874
C            1.28960322414301        2.38843023149830       -0.53858974786080
C            2.65121088812218        2.18609328506992       -0.61812309617619
C            3.41293516557812        1.10098998093014       -0.21769315767336
C            2.96879736683454       -0.13946224712578        0.24712300176153
C            1.62952435696320       -0.60585378469703        0.20019507249165
C            1.44320161927457       -1.97660101889945        0.47401543340701
N            1.33564646167019       -3.09560090535274        0.71946655251983
N            3.90384628825441       -1.00378816669641        0.71158314143631
H            4.87908616383409       -0.77792809391629        0.63124466618031
H            3.64300539880843       -1.94571079555399        0.95047684533525
H            4.48754807391450        1.22954305592746       -0.24362914931786
H            3.22249355712677        3.03833864121470       -0.96691400353333
H            0.95401147791361        3.39345237157518       -0.76574994272527
C           -0.95757223013085        2.05863322158307        0.26143538868023
C           -2.15095993972937        1.45854960758874        0.62152160195349
H           -2.87621660578596        2.10465304354841        1.10347847539081
H           -0.92289961441509        3.13048424234172        0.41688193006708
N           -2.49173472299961       -1.66855715701126       -1.17804256824646
H           -1.95451138077230       -2.37460456143423       -1.65142411140243
H           -3.46965576967367       -1.82800827848781       -1.00470317794450
