25
 energy: -38.641003417975 gnorm: 0.000486036641 xtb: 6.6.1 (8d0f1dd)
N           -3.95968868162478       -1.10945514413614       -1.67473512264063
C           -3.11689386798023       -0.57117110234210       -1.11242351361140
C           -2.07728144783603        0.08316224696810       -0.40796722694932
C           -0.93513506214996       -0.74200683153029       -0.09878364305763
C            0.32598101269815       -0.33251852787218        0.16107186204909
C            1.33412396753199       -1.33543063119091        0.54176671739294
N            0.88390167900249       -2.30766375868166        1.40919486560707
H            0.05090333156779       -2.10481183137974        1.93644476822604
H            1.58123590230450       -2.85300519369655        1.88931917490913
C            2.58299647411948       -1.41320910818756        0.01600506474982
C            3.20914991772755       -0.51534000774345       -0.89383648090267
C            2.91166443005649        0.79130651846720       -1.07599579558907
C            1.90531411196930        1.52482619408178       -0.37924298195405
C            0.76964935148054        1.05580568741023        0.18160188412587
C           -0.08593176307976        1.97501475417081        0.94606017523872
C           -1.41157311322518        2.12634587572795        0.82714751129799
C           -2.29383397600149        1.36274232295143       -0.00684501544568
H           -3.24485007239177        1.81953633409202       -0.24970151907863
H           -1.88975794314277        2.91209356495559        1.39970718955804
H            0.44478435458535        2.61532576627282        1.64161196133215
H            2.06196491524030        2.59652871238884       -0.32997188477010
H            3.54351680162825        1.37154127823112       -1.73517219368978
H            4.06858604138608       -0.91507838777977       -1.41679086125395
H            3.16492463074733       -2.28647853987822        0.28728123779439
H           -1.11730848151378       -1.80867203459956       -0.14906601603832
