25
 energy: -41.861930951595 gnorm: 0.000540850863 xtb: 6.6.1 (8d0f1dd)
N           -1.77879617168645       -1.67575277883500       -1.57172059802780
C           -1.62460081110236       -0.97955616633763       -0.43036170466169
N           -2.62165133625447       -0.34968519774246        0.08351348331250
C           -2.53803880750738        0.65528840220000        0.96585013914183
N           -1.64379646536968        1.57652482904848        1.06350366879471
C           -0.43641815328513        1.52842713341427        0.42801883386113
C            0.24857360618518        0.40025973714644        0.08443063022036
C            1.59238005694453        0.43619010165511       -0.55937200434080
N            2.63602857214172       -0.15176990165064       -0.11106985180435
C            2.67219120920649       -1.09424761101228        0.86225726034146
C            1.72986250965021       -2.02933923952784        1.13322849352972
C            0.40441990060921       -2.04249120499640        0.59545066672001
C           -0.26145893828813       -0.95112785682244        0.16420181356791
H           -0.11984039456832       -2.99106511374023        0.60191536554319
H            2.00299638463949       -2.85981183779889        1.76977351015350
H            3.64585399772951       -1.16498498242898        1.33285326274645
N            1.65119032917069        1.10237330721400       -1.74178383494681
H            2.55205365330351        1.18220546593709       -2.18388100372237
H            0.97777333366129        1.83262884190227       -1.90382001043949
N            0.12284427675603        2.79409403603510        0.21155839184227
H           -0.38307050973537        3.49899760356420        0.73088327442814
H            1.11932588075070        2.84355951105476        0.37665480406593
H           -3.42826280328195        0.79124557355590        1.57084427920122
H           -1.06221488102991       -2.30998440295164       -1.87564066687776
H           -2.66833962303935       -1.66584358648318       -2.04048179534972
