23
 energy: -34.403155985777 gnorm: 0.000602289055 xtb: 6.6.1 (8d0f1dd)
N           -3.34005571882779       -1.28000146252193        0.72343274813859
C           -2.27445910777206       -0.57233069176267        0.22678554607673
C           -2.61647155376927        0.66710383356128       -0.42154705006862
C           -1.80160063485331        1.71415001472101       -0.68179296286901
C           -0.43943596642107        1.87017015366857       -0.31557514294945
C            0.46090070841945        0.90419330246255        0.01681550646039
C            1.70958003636458        1.26219965361001        0.65017585865020
C            2.91151447315481        0.63481459745607        0.61305473499992
C            3.27928941862517       -0.47913929889017       -0.18664212733341
C            2.38442296154632       -1.27164719639049       -0.84063811294175
N            1.07880798104101       -1.37092228806990       -0.58554558424594
C            0.21941666294874       -0.53788280852388       -0.11135261007979
C           -1.01948893781812       -1.09238432002318        0.35240289565712
H           -0.93528583860482       -2.09781430611891        0.74649890748303
H            2.73715680307766       -2.02059143100840       -1.54214898520810
H            4.33465763630520       -0.68531544742134       -0.29585222980135
H            3.71395991498647        1.09057584327417        1.18115302023848
H            1.63593863090437        2.14793142228500        1.27203647557985
H           -0.07981919281235        2.89273450538063       -0.30646696064726
H           -2.25808791535377        2.58531144660704       -1.13691239829380
H           -3.66384268291768        0.77041845302274       -0.67879789817764
H           -3.18610480693871       -2.23538994522049        0.99697303803366
H           -4.26073949518528       -1.05499358789781        0.38842362239812
