26
 energy: -46.399078094514 gnorm: 0.000639728768 xtb: 6.6.1 (8d0f1dd)
N           -0.22826581125222       -3.60382369149301        0.77923875500629
C            0.13859084679191       -2.52868029481618        0.59447207281478
C            0.62774600143050       -1.22639744757346        0.39075834482214
C           -0.33145487984999       -0.24065764796853        0.11675115098875
N           -1.49932880895482       -0.58988201420031       -0.37004842179776
C           -2.65347975234184        0.05277475064196       -0.40707871703523
N           -3.12427716144017        0.93340204085280        0.48224276327272
C           -2.27003975550949        1.59952030662160        1.23664790884920
N           -1.00523747785698        1.83255869371315        1.05091582532535
C           -0.09062166096536        1.20252674046180        0.32161322339203
C            1.01401890628165        1.87460392254661       -0.15303619688832
C            2.26655463848367        1.32523990895492       -0.47139649201562
C            2.72193598454025        0.04389112555124       -0.15399740444487
C            2.03709714812721       -1.06141147550801        0.34549082011268
N            2.78446354965653       -2.12719066100133        0.74478771960400
H            3.76409185311812       -2.15546222619025        0.52381554916514
H            2.32063332570842       -2.99950616016189        0.93765716120302
H            3.78629627787861       -0.11067162438386       -0.29552382190447
N            3.16540363870535        2.16826537402657       -1.05881738572514
H            2.94489283435925        3.14705873439819       -1.11298974595164
H            4.13804309496509        1.91617039705914       -1.08053614774476
H            0.93232928281926        2.95359527693136       -0.19252489996860
H           -2.71366157857275        2.13289918491996        2.07241681375517
N           -3.51487514579637       -0.33042160438036       -1.37754595390732
H           -4.47460467829940       -0.05234535593319       -1.26819710090575
H           -3.30576136672390       -1.17042957746471       -1.88872179262012
