32
 energy: -59.107534212814 gnorm: 0.000765901371 xtb: 6.6.1 (8d0f1dd)
N           -5.89193151364653       -0.75862307178225        0.23122585494497
C           -4.75857246577092       -0.60947120075124        0.10609030750563
C           -3.37312306573345       -0.40192121728194       -0.02875014149614
C           -2.83312584897677        0.76418421018527        0.54560762859432
N           -3.65606226991623        1.56609030381536        1.25816173029001
H           -3.34385388867089        2.47136039113582        1.56256206118406
H           -4.63610578429760        1.34654400890502        1.32410168576842
C           -1.51320384950585        1.22076675434947        0.35422072108419
C           -0.35834113343662        0.60748997165321       -0.09094080079229
C            0.72879180226954        1.50289170099582       -0.40776250818753
C            0.31972903293493        2.78305665954490       -0.82664850324044
N            0.01659398865011        3.83748804939240       -1.17646066400741
C            2.10943912548544        1.31821375628371       -0.33233163915513
N            2.91766172046538        2.32781997663358       -0.72787734655503
H            3.90955599841010        2.27014949549759       -0.57076926663450
H            2.51976140704096        3.20306212162172       -1.02475631944213
C            2.76309172857275        0.16928668761794        0.21487783281311
C            4.10945137978183        0.34279716623103        0.57848800499502
N            5.21256584330621        0.48274133879319        0.87816677890905
C            2.23418135449236       -1.11478941411825        0.36064394885148
N            3.02000438354551       -2.06315799920051        0.91476675905475
H            2.71946526837251       -3.02326782314241        0.93637900389657
H            3.97237200228225       -1.84496112849458        1.15709621450060
C            0.94504785784032       -1.54126098510127       -0.10472461874456
C            0.84561212003818       -2.94315408827531       -0.24406735453133
N            0.82537332368943       -4.08962732929080       -0.33856848407495
C           -0.22518099690697       -0.81366691356239       -0.33221016924841
C           -1.31773209866888       -1.54104576423430       -0.89115143220135
C           -2.66354544057489       -1.35238546927518       -0.78334656653232
H           -3.28584494036874       -2.08548817790061       -1.28297109223192
H           -1.02150581769894       -2.41975120856463       -1.45134030510761
H           -1.38770040666397        2.26261199313418        0.63077362522397
