26
 energy: -43.170280488833 gnorm: 0.000926410497 xtb: 6.6.1 (8d0f1dd)
N            3.29548886288145        2.56855820116385        0.34431032093365
C            2.29282201246698        2.03863454150644        0.16288057617720
C            1.04047389690521        1.42931165411286       -0.07475140521898
C            0.07033601216994        2.31662528650561       -0.65647136736817
C           -1.26904717495024        2.19766120907293       -0.64667904309101
C           -2.03319181019503        1.15268898803805       -0.00947767537458
C           -1.56261512853020       -0.11357216899492        0.25585417344639
C           -2.43267817076355       -1.00992596641724        0.89945986937099
N           -3.15810447432140       -1.72378968577277        1.43815729781053
C           -0.26456133262265       -0.69615228177909       -0.10834338255945
C           -0.27244808569646       -1.97017353130886       -0.59635127313008
C            0.81265627588656       -2.83742131840805       -0.88383309416488
C            2.06268788029128       -2.78682370698484       -0.36022079245767
C            2.53046841361269       -1.82495467609606        0.57865357931549
C            2.03595941975297       -0.59240263540692        0.81795901748130
C            0.92790970131609        0.07926276050177        0.17004316396726
H            2.55536686930578        0.01718815118568        1.54902251705840
H            3.41958434111462       -2.10759304124173        1.12869377620886
H            2.75220832800686       -3.58261479183405       -0.60733574017790
H            0.57066254051911       -3.67775122893227       -1.52226541741458
H           -1.24914745128531       -2.37639328377584       -0.83370920010069
N           -3.32295129932425        1.46764955010937        0.27700519929671
H           -3.89283922326977        0.81419472235025        0.78714334539238
H           -3.63882222408809        2.41696166521158        0.19452725006421
H           -1.85778585736459        2.99886395606053       -1.07408273406716
H            0.49156506248459        3.21522888832680       -1.09125113621616
