31
 energy: -53.782853495733 gnorm: 0.000906656553 xtb: 6.6.1 (8d0f1dd)
N           -3.59388340089609       -2.96729893281013        1.14868869129227
C           -2.93464096533484       -2.10617247483752        0.76195314312042
C           -2.15573855046741       -1.04895137198344        0.26949867190173
C           -2.79006285023897        0.16576567361594        0.03568879959969
N           -2.29661256281802        1.14438543361513       -0.75431026491937
C           -1.05820233225715        1.45980240335956       -0.89087463050493
N           -0.69750671445676        2.24885926915969       -1.92123928950538
H           -1.39285946549260        2.55203514248374       -2.58115899692898
H            0.22420476921740        2.64620692702445       -1.94763446831719
C            0.04755899899633        1.00283302406119       -0.00921809671508
C            0.78798062782414        1.87227988175725        0.71637132534575
N            0.49448314763064        3.23669307219124        0.70174888827308
H           -0.46862282966494        3.46744521795458        0.50627177815242
H            0.86416666157734        3.74658169538560        1.48996172114549
C            1.93325313154733        1.49205115916181        1.51297399621803
C            2.76719442988888        0.46631384632185        1.27399685901820
C            2.70625925470474       -0.48721943040838        0.19527081878963
C            3.92508748062706       -1.10492116638748       -0.13966850628626
N            4.90996578635430       -1.62323500230054       -0.43184917691512
C            1.57963412261461       -0.89638111959133       -0.48047842374514
N            1.66427725446988       -1.76061649994054       -1.52147923721544
H            2.55323254331272       -2.17676693614565       -1.74856907663605
H            0.82666652945133       -2.19212058925269       -1.87215645089950
C            0.23111361979864       -0.44081075840200       -0.12145997158253
C           -0.78225224062383       -1.33494796508975       -0.01954517862342
H           -0.53905988323449       -2.39057689384731       -0.06915584259897
H            3.63827996019156        0.36375930965808        1.90975202250170
H            2.17362751173650        2.16087218715110        2.32991182446955
N           -4.05620801968749        0.39423417727649        0.49312530307037
H           -4.56494869801667        1.14415879869345        0.05660135890964
H           -4.58636402615174       -0.39835366936776        0.81737540318522
