29
 energy: -49.540328451411 gnorm: 0.000619358505 xtb: 6.6.1 (8d0f1dd)
N            4.28900735347243        1.71475890301156       -1.63390610944276
C            3.46227458642657        1.08897469916540       -1.13756067429424
C            2.44184497836797        0.33737750802306       -0.52422991444948
C            2.58302671043914       -1.02375453863042       -0.48037935358680
N            1.87878854779477       -1.87250768269532        0.28640063412747
C            0.65856139484535       -1.72459558334858        0.65811437818709
N            0.18999605848943       -2.46255839947902        1.69031302087736
H           -0.80429140785678       -2.58708277764427        1.77604330685794
H            0.80211703368325       -3.14779105909992        2.10130374669405
C           -0.31269575714443       -0.75866501225425        0.07810855113534
C           -1.49758367927331       -1.16643719644721       -0.44365721496184
N           -2.46289125697015       -0.38208451962787       -1.00338660369074
C           -2.75184376749443        0.81984115365344       -0.61936235804462
C           -2.17928976062050        1.57917240294928        0.46415354819882
C           -0.90333222131925        1.49367374186726        0.91226231530700
C            0.10742875920976        0.61817908785316        0.29208861029997
C            1.35254791686068        1.08766735518442        0.05016121452510
H            1.54743126702313        2.13990632293517        0.21932464126059
N           -0.45635969422909        2.29660360922433        1.92199521160346
H            0.44343439544925        2.10354158214345        2.32569776523884
H           -1.12779621211667        2.77692547759498        2.49648470608396
H           -2.82832515966603        2.32273315464178        0.91028113397909
N           -3.83520616315164        1.38929271309359       -1.22882386340220
H           -3.93939847976208        2.38823018210631       -1.19549394870059
H           -4.17220298953850        0.91870802185237       -2.05182525314712
N           -1.81014622918618       -2.52896796496616       -0.51676702015975
H           -2.58575413799707       -2.68569294972770       -1.14552194629082
H           -1.02489322454222       -3.13199868788374       -0.72050965496660
H            3.43088718660948       -1.48482033799665       -0.97353645033993
