22
 energy: -35.485847041291 gnorm: 0.000272226646 xtb: 6.6.1 (8d0f1dd)
N           -1.88840289326680       -3.12592594485478        0.36117652481031
C           -1.60796616982830       -2.01375471571803        0.30794303767598
C           -1.28210314556777       -0.63995796177188        0.24263183044020
C           -2.35012439993242        0.25069695767986        0.59740064782826
C           -2.46940986914646        1.55282300280786        0.25853665364294
C           -1.53657821226301        2.33622852489936       -0.49441904477998
C           -0.22114468219405        2.11484937646409       -0.66117359781993
C            0.55257965104491        1.04292370285819       -0.05165933286071
N            1.68990589686721        1.34638206674013        0.44216572507834
C            2.71926209568330        0.59320464019776        0.84351916621544
C            3.09268538090592       -0.58919697729240        0.27997422736354
C            2.25137929513440       -1.37540375575530       -0.55249720040474
C            0.90179837011594       -1.29037115982929       -0.67757453439994
C            0.00651951649039       -0.31493502808788       -0.10676026222013
H            0.41201357388218       -2.03188369235371       -1.29854619351431
H            2.73200822073940       -2.20013421995884       -1.06350702296622
H            4.08549174478240       -0.96747725349107        0.47624885999360
H            3.36172132194258        1.09013005025214        1.56027189565888
H            0.36833301280739        2.82554914184904       -1.22471902867649
H           -1.95030464525453        3.23216650762630       -0.94092115428322
H           -3.39123247846601        2.05458655604102        0.52100895357843
H           -3.18273697947471       -0.22079105060189        1.10558272114094
