29
 energy: -50.344157304715 gnorm: 0.000678942975 xtb: 6.6.1 (8d0f1dd)
N           -1.83147811551546       -2.09438708304378        2.03709806260248
C           -1.66004771719281       -1.25742798950323        1.26475312410231
C           -1.49429923043542       -0.15146733210350        0.41082333306545
C           -2.66107038833813        0.54922035111820        0.06560479244892
C           -2.72249347958726        1.65438417012406       -0.80991747671794
C           -1.69265922913354        2.47257610162491       -1.20238713518600
C           -0.35999343326327        2.45787407751261       -0.80472564322676
C            0.34787166014482        1.46006989565893       -0.14512747004759
N            1.50693558324518        1.80909640167498        0.40560179434738
C            2.60509749683965        1.14096621990069        0.62797205025559
C            2.98864797256954       -0.07790234433666        0.01318000628377
C            2.11149970287646       -1.03591672967787       -0.43851558660222
N            2.61338944405991       -2.15196711807341       -1.03262648196752
H            3.60427166269405       -2.31532387116442       -1.00253715285612
H            2.01033423956183       -2.94372156015881       -1.18232635415400
C            0.67796186009107       -0.99656669052409       -0.25972010924437
C            0.03166151544115       -2.22893338539815       -0.48070725978328
N           -0.43324728905881       -3.24660618814947       -0.75339815615455
C           -0.14942014387043        0.09776825542839       -0.01166244681903
H            4.04579187588624       -0.30463944840812       -0.02388460414332
N            3.49294948430113        1.73716270734358        1.46290111960817
H            3.27848105990876        2.65628658919176        1.80597611750725
H            4.43081930820524        1.39059629935515        1.54184370384367
H            0.22760875043643        3.33511403956711       -1.04032106456752
H           -1.97446207890992        3.30473715780947       -1.83657758729428
H           -3.71751440530904        1.92152086729042       -1.14287862060087
N           -3.84110376244251        0.09940617491193        0.56517520028369
H           -3.86666273049094       -0.75936302319610        1.08884794059049
H           -4.70422083331407        0.47747975962512        0.21873609532668
