27
 energy: -46.110153365326 gnorm: 0.000736149362 xtb: 6.6.1 (8d0f1dd)
N           -5.14375801180613       -0.50139642639671       -0.39589460386865
C           -3.99651574228960       -0.42480595359833       -0.32546847944906
C           -2.59920815422225       -0.30697119971375       -0.23879815056255
C           -1.86664711540384       -1.29375218690882       -0.91018234567067
C           -0.52146690760948       -1.55350849928796       -0.88615834259054
C            0.48798327747100       -0.80477384319311       -0.24846083690458
N            1.56436970666904       -1.43814160534386        0.13751295675600
C            2.76760429425768       -1.01643948374168        0.51190598237179
C            3.39544625167957        0.13980668434908        0.05435263053108
C            2.65894626644188        1.18911854214849       -0.51296219052442
N            1.37378789509482        1.42598378743429       -0.32301289471104
C            0.36187575123160        0.64138504004479       -0.00881751737345
C           -0.78234557344390        1.24382694988607        0.51243186019880
C           -2.10042261403451        0.80129753123492        0.50171057906390
N           -3.01424658780699        1.54163740828873        1.18799738210287
H           -2.73938284096778        2.42860097225321        1.57098563674842
H           -3.99547762463480        1.37127172196779        1.04351701277576
H           -0.62070329233755        2.23652698149021        0.91655850826086
N            3.31004314338228        2.13880206423822       -1.24423289729579
H            2.80232725421990        2.97969796785046       -1.45816509958533
H            4.31114054765538        2.19683086408240       -1.18638563060534
H            4.46987950191041        0.22616418668714        0.12686099190230
N            3.44580958905728       -1.88752432153202        1.31446897530926
H            3.04802446764893       -2.80401687275078        1.42802682669656
H            4.44468814386317       -1.80327721393604        1.38236227958481
H           -0.18734439170228       -2.48164296187531       -1.33054394383618
H           -2.47752966342359       -2.00866755396708       -1.45121926242382
