27
 energy: -46.115768950287 gnorm: 0.000388724894 xtb: 6.6.1 (8d0f1dd)
N           -0.52436795089093       -3.63212908836702       -1.57450999481600
C           -0.79797431561454       -2.60370122015051       -1.13566220208743
C           -1.15218717054597       -1.34546119606334       -0.61392875796664
C           -0.06030862502960       -0.51987071283527       -0.17748449938538
C            1.11482060239016       -1.13861962902500        0.19363621310110
C            2.34978830700703       -0.55425824111527        0.59141525990624
N            2.83273367694872        0.63153556455102        0.28293830582259
C            2.11925239506182        1.50532659955201       -0.45203384336313
N            0.83266632726435        1.71350529063251       -0.47178068224048
C           -0.19075589317642        0.93180889977635       -0.11254800976996
C           -1.33685132021125        1.61450205388520        0.26659225329361
C           -2.66057801724809        1.18755548178008        0.42676777501664
N           -3.52637412952063        2.08251836413473        0.98688921934559
H           -4.51479710125243        1.91247227109203        0.92311995915900
H           -3.22997007765482        3.03420446928145        1.11428118084052
C           -3.19713586961220       -0.03483640397040        0.00645404301285
C           -2.51735373086830       -1.10723614314019       -0.53368605984670
H           -3.13742904419008       -1.92137989765939       -0.89409437207564
H           -4.27247591378092       -0.13351005896556        0.08434039492820
H           -1.16360530466324        2.67001836848104        0.44288334572864
N            2.87633346805187        2.35854438641385       -1.18137248924428
H            2.43103330437006        3.15253078799891       -1.60484200566131
H            3.86605343289339        2.37037064042226       -1.01373571480611
N            3.18322942643778       -1.33502980155177        1.31904121387002
H            4.11249260153137       -0.99342743313167        1.49104177655548
H            2.99302555303291       -2.31463819610822        1.42974387135429
H            1.08541590666685       -2.21997572731783        0.25992126412860
