25
 energy: -38.644047881438 gnorm: 0.000465393619 xtb: 6.6.1 (8d0f1dd)
N            4.09801481810162        1.63151072497666        1.06631924073021
C            3.19407642371970        1.01363682338530        0.71912658929562
C            2.08040296448367        0.26128375670914        0.28891612307640
C            2.17712786971696       -1.10083828365063        0.33029851856111
C            1.22849376725807       -2.02845379845495       -0.16093919925535
C           -0.10398046221743       -1.83103292728367       -0.35748836301294
N           -0.88198875854503       -2.83179886109122       -0.87820380728885
H           -0.42802055939386       -3.56814845646104       -1.39281913663002
H           -1.82214758048636       -2.60271646667537       -1.15226373821351
C           -0.84529844354239       -0.62805510470408        0.06549289066246
C           -1.99334455933489       -0.77014112072387        0.76159329618777
C           -2.89866616233908        0.26131037877744        1.17870509672232
C           -3.10747938091067        1.43769345668855        0.55852039861796
C           -2.45873974242128        1.87620844699992       -0.64944259381628
C           -1.24633594162086        1.51721129865848       -1.08780527658281
C           -0.29376208896615        0.64398541417032       -0.39087159474193
C            0.99491705842554        1.01978879327908       -0.27540222681199
H            1.25526176836526        2.01890494298369       -0.60535065659079
H           -0.88962131891108        1.92610044220666       -2.02623305511644
H           -3.02058041847013        2.59082743898981       -1.23913262297983
H           -3.88670917755766        2.08840238014278        0.93317027845652
H           -3.52339526450094        0.01088515578069        2.02695322585453
H           -2.24912701031118       -1.76904669535414        1.09460118230918
H            1.60814012393433       -3.02089808222774       -0.37348550308506
H            3.11190463522467       -1.51974394432232        0.68245094245496
