23
 energy: -39.212556506587 gnorm: 0.000663435805 xtb: 6.6.1 (8d0f1dd)
N            4.57041872876364        0.09042762495157        1.01326397131777
C            3.45880711954747        0.19388136522957        0.73154033575625
C            2.10666408760690        0.25929062385198        0.37339033161904
C            1.55106640712643       -0.87175768325111       -0.35530652540473
N            0.30285761149887       -1.20112436771640       -0.36981034254994
C           -0.81374618039559       -0.58839875869444        0.02649533356382
C           -1.80780064588869       -1.39486470861337        0.57280991013856
C           -3.14553259470765       -1.06815583987931        0.80052541553000
N           -3.88383864910405       -0.14574835889871        0.24687190898951
C           -3.44201438778967        0.84448816677308       -0.52982098036893
C           -2.18913619306823        1.38522186224204       -0.63311553278458
C           -0.95881800395475        0.85050338975149       -0.15128303114044
C            0.09214795261025        1.71744551712006        0.11719864145367
C            1.40202127827310        1.43747090552303        0.51386657109414
H            1.96378094763638        2.27660335967871        0.90921258999040
H           -0.16859141745928        2.76878667858931        0.10559797354706
H           -2.11146439338142        2.34589722596648       -1.12950202311583
H           -4.25029473371295        1.35591356690283       -1.04476092862675
H           -3.70802388854593       -1.73697667476109        1.44759141718081
H           -1.48311834455469       -2.38327869241704        0.87186452184932
N            2.41115635525678       -1.64306821129419       -1.04623956755337
H            3.40309160676072       -1.50888732812007       -0.95090406658285
H            2.05940433238216       -2.44919407643343       -1.53269122700303
