22
 energy: -40.280197203248 gnorm: 0.000576044141 xtb: 6.6.1 (8d0f1dd)
N           -4.82864198823214       -0.57175492616655        0.51671487811203
C           -3.68962352354963       -0.53794461987060        0.38545614361077
C           -2.28811296505524       -0.48883317101721        0.22805035774122
C           -1.52464527319439       -1.53558460074570        0.71204338887593
N           -0.29131680264617       -1.80251748034487        0.32901559969922
C            0.69669275818243       -1.07966494721326       -0.04884609246179
C            1.79378391066865       -1.67177264971944       -0.77263258213150
C            3.08648315151467       -1.29726968115900       -0.61254081927517
N            3.60395252645511       -0.54470523540635        0.37747254799749
C            3.04634657648452        0.43321596609476        0.98953170332974
C            1.80124609288161        1.05355723745080        0.65833239748234
C            0.74127902622313        0.38072593206975        0.14195182001438
C           -0.43235070937836        1.06630707209765       -0.38811260994854
C           -0.13028907468856        2.28974229402510       -1.03075316252602
N            0.12020517694815        3.29001664315834       -1.53341989862693
C           -1.73870780269130        0.66011408055637       -0.40453769387978
H           -2.45031343912262        1.33619568738785       -0.86528663310717
H            1.69552344187876        2.10796734535868        0.87874066852731
H            3.63657679052847        0.87835178900390        1.78489876057188
H            3.85072581010724       -1.75594750679801       -1.22984356986409
H            1.54582142632880       -2.48381273994028       -1.44201305002964
H           -1.98057539694409       -2.29755502392339        1.33272858378788
