30
 energy: -59.676264319403 gnorm: 0.000997308700 xtb: 6.6.1 (8d0f1dd)
N           -4.71232593398640       -1.40535143901396       -0.58729318295675
C           -3.65086096956906       -1.01879550801853       -0.36839129479715
C           -2.35250798525287       -0.54148777828383       -0.10214325117023
C           -2.11951940877815        0.80484513452791       -0.45179636761806
N           -3.08716195563835        1.45426590997302       -1.13001730713398
H           -3.96288369807550        0.99808162513299       -1.32665127585763
H           -3.00914562632457        2.44614764553986       -1.28459584833325
C           -0.99750615057253        1.57639209499922       -0.04273673802077
C           -1.13525345718578        2.97838969772871       -0.13307664205427
N           -1.27534930857918        4.11291284436688       -0.24280553368563
C            0.22938018752247        1.12686806783871        0.45053209756535
N            0.97987461093126        1.95903394682113        1.15057285683891
C            2.26296738469953        2.07505510845370        1.26147198336881
N            3.18658175939075        1.67846637137872        0.40898510052481
C            3.02719822867906        0.63508781283945       -0.38933028315850
N            3.98898405308325        0.46087998511005       -1.31008348543992
H            4.75773982280461        1.10970017463983       -1.31205980599496
H            4.05307960586485       -0.39416304044336       -1.83737969537956
C            2.01758701897754       -0.38498671052059       -0.25992050548337
C            2.33528663137800       -1.61226426526465       -0.87525605596570
N            2.63642255184219       -2.55535291198551       -1.46017439628976
C            0.72017146733629       -0.23852190487100        0.25696712586956
C           -0.06759474744708       -1.36934790783424        0.55530891935652
C            0.62906446249154       -2.52673939662975        0.96255302978670
N            1.14884448351894       -3.46583261394341        1.37449231713131
C           -1.47556618445972       -1.47979308911462        0.50596026047029
N           -2.02397847357868       -2.62190877293219        0.96692458855527
H           -3.00455672466265       -2.80517500158026        0.83241588439986
H           -1.42972316503763       -3.36630098583439        1.29400826474496
H            2.61379675232680        2.68519501081849        2.08632675142897
