28
 energy: -45.805732572375 gnorm: 0.000928041321 xtb: 6.6.1 (8d0f1dd)
N           -4.01134591228224       -1.31621316904271        0.82384196160922
C           -3.01437543235531       -0.81169920880341        0.54182026367689
C           -1.81353536562098       -0.19793927407027        0.16474562358818
C           -1.92029647002764        1.05405889238398       -0.59595660155540
N           -1.13974277988608        2.06842367304145       -0.50294437701035
C            0.01961758441361        2.10950047471539        0.20733689959801
C            0.92226707369267        1.12614908927388        0.40970675417582
C            2.16412186859257        1.39962209936739        1.12853333920623
C            3.38090832228671        0.96723005819819        0.77727056910666
C            3.70094286179760        0.16077370112606       -0.37404419387132
C            2.89785766147611       -0.71308026863829       -0.99950860083831
C            1.54846732908698       -1.08412605852490       -0.62064795274174
N            1.19647454079421       -2.40050624227951       -0.93990370528895
H            0.20882670143161       -2.55902812286453       -1.07919034617419
H            1.75505163326332       -2.80609475580910       -1.67614707122146
C            0.67816145248742       -0.27072528188242        0.02663737032422
C           -0.61979727138147       -0.78240257142750        0.50416161412102
N           -0.57076153235128       -1.86647855711487        1.31425368408383
H            0.29652204764545       -2.35922612273678        1.43098781875348
H           -1.41920396983517       -2.26334357291336        1.68280259642075
H            3.31171898952091       -1.28780432937326       -1.82044351127645
H            4.71893676138416        0.25524160102140       -0.73075022892182
H            4.23237947329996        1.28453741341794        1.36641951983752
H            2.07016199224867        2.04414625355075        1.99544217796227
H            0.26563501056101        3.11402022325182        0.53368942065609
N           -2.99164526919450        1.14855914160206       -1.44120663695802
H           -3.78671325282358        0.55502540239880       -1.26779166851235
H           -3.18226508892560        2.07144416143201       -1.79645831634973
