26
 energy: -47.187746932324 gnorm: 0.000963912358 xtb: 6.6.1 (8d0f1dd)
N           -0.85289925232496       -3.49007704865030       -1.29174553335216
C           -0.38075395160082       -2.49434618744326       -0.96884006789724
C            0.18953567086853       -1.26093191282186       -0.59233581839176
C            1.57680779308905       -1.17057903191763       -0.56865287701594
C            2.38684327525196       -0.16633997594854       -0.05876901410833
C            3.76141766903007       -0.47381423095436       -0.00421201853868
N            4.88610612565568       -0.70901039347879        0.04691565125918
C            2.01928822577087        1.14497915212059        0.39101974905391
C            0.78616169853333        1.75221928453538        0.19642401205079
C           -0.39299320562155        1.18344817328162       -0.28335855167144
N           -1.28003100506355        1.92805763719210       -0.89360452064704
C           -2.56807276667500        1.80032458160213       -1.11436813870147
C           -3.46545775592178        1.05982322775540       -0.37235715554731
C           -3.01480732837445        0.03789094614466        0.49002454599605
N           -1.86319018042975       -0.58964414688460        0.33510040610737
C           -0.71487099416286       -0.25478248350792       -0.17395735402367
N           -3.82349762106320       -0.45054396689771        1.46140658467212
H           -3.55119846974458       -1.30911981542647        1.91105235615068
H           -4.79734036734954       -0.20421357517283        1.46005432973908
H           -4.52327362836238        1.25636143952850       -0.44956267329568
H           -2.93980755165875        2.45850945913751       -1.89295473328870
H            0.74470511377198        2.82135105278485        0.36469865249871
N            3.00142358261407        1.88368853221701        0.96243756465848
H            3.94740059539726        1.54061404168394        0.97564342388135
H            2.83825650770901        2.85192541245828        1.17407656967908
H            2.10173813136044       -2.05864632363674       -0.90620757146730
