29
 energy: -49.538748758615 gnorm: 0.000920747978 xtb: 6.6.1 (8d0f1dd)
N           -4.09381969296003       -1.70457880449781        1.39558021116660
C           -3.19329456165773       -1.14834780370802        0.94007138379361
C           -2.11867146741532       -0.46037308335090        0.35869091351123
C           -2.29015739143804        0.87973771765309        0.05798988002097
N           -3.45027937446410        1.50187189730537        0.43072400191988
H           -3.69423251368498        2.37554323345230       -0.00108038825950
H           -4.20389911941326        0.93278880261278        0.77995474060048
C           -1.37036156663540        1.68193909001497       -0.69243307452030
C           -0.02446305110700        1.54182152583970       -0.80456870726335
N            0.69441934867288        2.30447819144660       -1.68129312968205
H            0.23951741926901        3.08499821162412       -2.12531536908933
H            1.68213905522373        2.39215234144340       -1.50333259512266
C            0.75758714776842        0.54740931140784       -0.05237449538782
C            1.89707171532604        0.89285032046551        0.62109376102769
N            2.68625900830167        0.07319090840417        1.37196815433847
C            2.81237480408617       -1.19300566995342        1.18048507438494
N            2.44007708394502       -1.92531229106095        0.12120859274116
C            1.40075436810365       -1.69561245390959       -0.60063478467601
N            1.30593013361803       -2.22260251966980       -1.83625137057711
H            2.06019926480245       -2.79059615500217       -2.18325427608722
H            0.41890265381972       -2.23723194394104       -2.30730917827652
C            0.27947945659848       -0.82427031839139       -0.15834487767020
C           -0.97602325357497       -1.26406601350882        0.00209202121272
H           -1.16888080177136       -2.32665215911610       -0.09232866852125
H            3.43518561984624       -1.72268254865179        1.89330907790944
N            2.32490086399075        2.23182978635998        0.66201445421590
H            3.06494518496910        2.33217409865276        1.34502668084505
H            1.57990251205950        2.89638034940066        0.82777803724204
H           -1.81976593507768        2.52353591847841       -1.20972324699677
