25
 energy: -42.673239253266 gnorm: 0.000175585174 xtb: 6.6.1 (8d0f1dd)
N           -4.54221961691357       -0.00065897359430        0.00074682682697
C           -3.38865639330169       -0.00041603879386        0.00050841467582
C           -1.99462635102505       -0.00029182859236        0.00023244822173
C           -1.29033085737428        1.17840442067695       -0.36021526830058
N           -0.04359459105012        1.45429908194636       -0.04152044024411
C            1.01176064652379        0.70201456365297        0.20208619656305
C            2.10374501452792        1.32030912933239        0.83447977041557
C            3.43635313584243        0.97335280891795        0.77625898219990
C            4.04842978224256        0.00033943882279       -0.00461098081543
C            3.43498301104620       -0.97307455574032       -0.78377158431317
C            2.10232013615652       -1.32065632687984       -0.83874158927377
C            1.01150176784009       -0.70235153803886       -0.20458716622990
N           -0.04344696858372       -1.45467359563280        0.04114639564077
C           -1.28989031089596       -1.17887138151094        0.36065231937344
N           -1.96395878245629       -2.17211150435229        0.98662688658073
H           -1.50827069514229       -3.06120169030999        1.09364080761102
H           -2.96432835491780       -2.11630904219916        1.07163770929533
H            1.85042731298554       -2.23181694989310       -1.36661758319130
H            4.10472474045557       -1.60645953243248       -1.35371337953555
H            5.13045254142800        0.00068138802264       -0.00595691928495
H            4.10719260967887        1.60681742947822        1.34486013661572
H            1.85261948948516        2.23105509968158        1.36345189218492
N           -1.96488584469940        2.17197372536781       -0.98513243942614
H           -2.96528916975325        2.11611561251521       -1.06968135587115
H           -1.50924808909982        3.06111672595492       -1.09209487341851
