27
 energy: -46.873476283081 gnorm: 0.000731146326 xtb: 6.6.1 (8d0f1dd)
N           -4.98844632204194        0.42337360061352       -1.28267858322220
C           -3.96588827102991        0.38569102931721       -0.76272078565340
C           -2.72070544541639        0.34415138689095       -0.10126036435819
C           -2.59904949687491        1.17437456610166        1.10726947180169
N           -1.56037824053937        1.76693597467191        1.52498299039138
C           -0.33580994218972        1.70484789740238        0.91812883631201
C            0.24615167831682        0.64213862797622        0.31981247522483
C            1.60126449357624        0.79261763643664       -0.23562329243231
N            1.81502282603880        1.90912655678625       -0.97019194454899
H            2.71930326584338        2.07762556550837       -1.37883153663195
H            1.09097774926487        2.59652746211942       -1.07458544293790
C            2.61509917453799       -0.10717988776441       -0.00710934643260
C            3.90599028756297        0.23800813474948       -0.45307342733980
N            4.95072748729903        0.53901244180104       -0.82709184524491
C            2.50948657261706       -1.36216099944394        0.68598781209925
C            1.41433975761129       -2.13158894129224        0.81691616186160
C            0.09350104653088       -1.87355385624303        0.29671688426307
N           -0.65934025604324       -3.00061538604316        0.03721562827878
H           -0.32386932702117       -3.86655282695523        0.42354814965130
H           -1.65979733576745       -2.90806091674319        0.00364368917139
C           -0.43555302142991       -0.63378656124819        0.07687369092245
C           -1.74913194906237       -0.48749521325997       -0.53879354166711
H           -1.95279275683555       -1.10716478945860       -1.40882515380082
H            1.53521970008232       -3.09403648446207        1.29836153157645
H            3.44788070400885       -1.74754197143604        1.06487030582227
H            0.23891853692288        2.61032479925900        1.07509955875165
H           -3.51037068166228        1.33272597351678        1.67518204374208
