22
 energy: -38.714653625217 gnorm: 0.000506779668 xtb: 6.6.1 (8d0f1dd)
N            3.43171622735572        1.51348522548542       -0.87955153181683
C            2.44951890092905        0.76212741476696       -0.31369174866885
C            1.13942373463601        1.24567980918840       -0.40841295962573
C           -0.00817088037190        0.56931579626040       -0.02227471755871
N           -1.12916964867602        1.18368468242654        0.30213365248108
C           -2.36050641052033        0.70664427830717        0.27657580709684
N           -2.86581088116361       -0.19493740254677       -0.58152879508359
C           -2.07046524470305       -1.07621295039086       -1.14534134089123
N           -0.89852785599123       -1.49892883628674       -0.75516956156696
C           -0.01147735418506       -0.91583036907300        0.02424715578511
N            0.81374679335186       -1.61549449066962        0.75764379933913
C            2.05625091136907       -1.29335393270848        1.05209454954883
C            2.86354685908965       -0.35447792115271        0.44714202214191
H            3.92882766461677       -0.43781667488609        0.62131399245809
H            2.51052606757094       -1.95704145146301        1.78087696299570
H           -2.49752816847632       -1.61746212727570       -1.98444928145639
N           -3.26033053807474        1.31385706149244        1.08013396381457
H           -2.98505536090315        2.14261088677114        1.57634548134783
H           -4.23346860538707        1.13097517205495        0.91147372573068
H            1.00701632395324        2.25014513723345       -0.79014468010850
H            3.21054121581239        2.41119523767811       -1.27155211060551
H            4.39470498386788        1.30713813088869       -0.68304922675675
