29
 energy: -49.544018395679 gnorm: 0.000532805004 xtb: 6.6.1 (8d0f1dd)
N           -4.88090368392159       -0.67369662977277        0.39752565649020
C           -3.80203242857860       -0.37914229839978        0.12485920490743
C           -2.47402255300713       -0.04434422654300       -0.19266849581367
C           -2.31304382358989        1.06839168585710       -1.09602556153787
C           -1.24495073785163        1.86987588972169       -1.23964461184403
C           -0.00535255899676        1.79656344207057       -0.49716179949848
N            0.65325491327744        3.01452202438856       -0.30161539250652
H            0.41689521132331        3.72116074899034       -0.98235628443158
H            1.64989358292904        2.93782652104833       -0.15727781213939
C            0.49373529469126        0.65612121336854        0.02712390725019
C            1.72382930745595        0.62683658149628        0.86155497953612
N            2.79935776046445       -0.00365927938391        0.54718193122389
C            2.86056942893481       -0.92504739313158       -0.45476785462974
N            1.97798042460813       -1.82685418653881       -0.75180876144905
C            0.68798704452948       -1.78105946262381       -0.34567015991434
C           -0.06874957132693       -0.69143356505452       -0.04858385928743
C           -1.47740273843834       -0.84176895415563        0.32313569655393
N           -1.76351417437440       -1.82359607305623        1.21393704899672
H           -2.72521152560826       -2.03592136662290        1.42450590086791
H           -1.05978156934528       -2.50614431733824        1.43299036260509
H            0.20930424142776       -2.75460818202381       -0.39628126662575
N            4.06220903350248       -0.97536356393222       -1.10238745056765
H            4.24215948236218       -1.82041990315232       -1.61826635705157
H            4.84259687824130       -0.54506050615629       -0.63587492439677
N            1.66184485023974        1.28812965538804        2.03429608592137
H            0.90457534596416        1.92344265365830        2.20899421480176
H            2.44643417076450        1.25755079414187        2.66221771072065
H           -1.32958265050491        2.70937622240553       -1.91885366746563
H           -3.20268437546765        1.30741755754780       -1.66654236611822
