25
 energy: -38.647248357759 gnorm: 0.000790314454 xtb: 6.6.1 (8d0f1dd)
N            1.52024673946394        2.71443136151409       -1.48571702283840
C            1.31333461611174        1.72691737197722       -0.92973245405165
C            1.08961181618419        0.50954278551600       -0.26803223621423
C           -0.31257147734835        0.26999133537237        0.10281962934779
C           -1.01832182065118        1.31739386920337        0.60301429643876
C           -2.40803734696619        1.40674945161349        0.90144336148137
C           -3.40628943361047        0.66431788167956        0.37210004899068
C           -3.25010392954859       -0.37397201259196       -0.59769581956936
C           -2.14885726996589       -1.10157287248721       -0.85427595951808
C           -0.85518707252274       -1.04872087649083       -0.18710171487707
C           -0.20832726527195       -2.21806970699724        0.05666261107670
C            1.07496309534087       -2.41780235422160        0.64197534484518
C            2.12404950422658       -1.56966560891485        0.65112403890779
C            2.18211033907407       -0.27717355727877        0.01885197570530
N            3.43524478785152        0.19047722858648       -0.24265197196353
H            3.53843406666650        1.03937823202318       -0.77284340684184
H            4.21882704070972       -0.43494239692250       -0.19261030342613
H            3.05906945015046       -1.91044865086199        1.07722757886995
H            1.23358513632441       -3.40082612998940        1.06873624632888
H           -0.75881964121114       -3.12683504416215       -0.15602248870253
H           -2.21750982941184       -1.86563133310796       -1.62104392056533
H           -4.14424885166387       -0.61525588068574       -1.16063691035126
H           -4.42601503888191        0.91569445136486        0.63305438140737
H           -2.68272913702557        2.22133221802684        1.56040590712926
H           -0.44854884332380        2.20977816493627        0.83567472079234
