23
 energy: -44.018931482101 gnorm: 0.000594485883 xtb: 6.6.1 (8d0f1dd)
N           -4.77662895279977       -0.82095736026266       -0.65818911991297
C           -3.65012105203172       -0.60974736847478       -0.57158669452394
C           -2.28806488394819       -0.30339729077156       -0.43716641049406
C           -1.31234608436798       -1.03921296626737       -1.09761605505344
N           -0.04631653167544       -1.07976197864205       -0.76531781089404
C            0.76496905188543       -0.24668672413269       -0.19423805608928
C            0.38714401544603        1.18897309460025       -0.21163068127873
N           -0.80110893412014        1.47535863059498        0.25744229996731
C           -1.90725698965809        0.78968661089990        0.41813270900087
N           -2.77623582717606        1.23591099075321        1.34198652965693
H           -3.69974598270974        0.84172284578435        1.39868230018907
H           -2.55388027361884        2.06357383539838        1.86715610473828
C            1.23977137264783        2.16396162961681       -0.73432134919328
C            2.61366140975888        2.00450318569550       -0.83228772948036
N            3.38750887732605        1.20762812742884       -0.12967967497840
C            3.07995531442465        0.14925717982905        0.57726526703065
C            1.95310776622386       -0.66621727894022        0.45879807885236
C            1.98254507281867       -1.96393525990408        1.00692396806042
N            2.00035852640267       -3.00909145844179        1.48089611545115
H            3.87865850006698       -0.19178559544864        1.22932890460293
H            3.16884725015973        2.71026922723568       -1.44244610668079
H            0.79212008220204        3.08874111147881       -1.06992617417734
H           -1.60106318525733       -1.74909269651954       -1.86387463271826
