25
 energy: -42.672383000265 gnorm: 0.000509564913 xtb: 6.6.1 (8d0f1dd)
N           -5.45374807530837        0.15373298065548        0.33201371384315
C           -4.31055828268038        0.09926963349837        0.22260406937042
C           -2.91003556206076        0.03769661278102        0.08694757970541
C           -2.26149007352949       -1.03180330594412        0.69095334245530
C           -0.92875443658153       -1.38775306668826        0.60329967710851
C            0.16022347997965       -0.70635797384594        0.05156039613938
N            1.23289559233718       -1.46098173235019       -0.18386706394903
C            2.49854446351223       -1.15507811101601       -0.26795512497106
N            3.15053111784276       -0.10855711401476        0.27678617067277
C            2.57946822878305        1.07247714612869        0.37248377010273
N            3.36196821006205        2.04018953525194        0.89542478040801
H            3.03954899674101        2.98637734460648        0.97702742407346
H            4.28096449639719        1.79112271053791        1.21421788696464
C            1.29788511203863        1.47379013917966       -0.11126527028709
C            0.16503852890090        0.70999768988320       -0.29060415283898
C           -0.99426945874320        1.36300304229406       -0.82428306822849
C           -2.31116244300217        1.06655821481724       -0.68249158750761
H           -3.01303723744917        1.73828550720172       -1.16427400926549
H           -0.76720196680424        2.26187231738077       -1.38682072720207
H            1.18702067170409        2.54056609020924       -0.26883135820881
N            3.30053327951358       -2.06192769621367       -0.86501565326389
H            2.91017141674070       -2.94622243776858       -1.13754102800285
H            4.29389939890849       -1.95889049869593       -0.76275634390374
H           -0.66494826874780       -2.36011710310634        0.99983908229140
H           -2.90101681605625       -1.72041468738201        1.23185807579607
