33
 energy: -57.221923303078 gnorm: 0.000817664056 xtb: 6.6.1 (8d0f1dd)
N            3.81073999521984        2.81343984621518       -1.43062048161153
C            3.15179703653004        1.99159876835977       -0.96435237322936
C            2.37672145003494        0.98323537806993       -0.37557398960834
C            2.98590680798407       -0.24226796383011       -0.13513882040542
N            2.51950796597134       -1.17828904609096        0.72108626792814
C            1.28307555288076       -1.45521472014005        0.94472963412907
N            0.97802537996408       -2.21893736535115        2.01309550669600
H            0.05424269690480       -2.60293489521502        2.09883650171125
H            1.71540780372209       -2.55035995208523        2.61114126175842
C            0.13280039681589       -0.98661714321187        0.13645157674783
C           -0.71564709249441       -1.85327986029651       -0.47045148653427
N           -0.46087157424754       -3.22866780483732       -0.41969063318277
H           -0.92080771265906       -3.75364399899580       -1.14897974633591
H            0.51488796799666       -3.47548045897989       -0.33013159430879
C           -1.89698689677483       -1.47230244979682       -1.19137230373877
C           -2.68377682456209       -0.39026012876510       -0.96768093581212
N           -3.77909077337586       -0.15932882756698       -1.76880812393645
H           -4.49519734482537        0.45339589077953       -1.41372298147832
H           -4.10342929956882       -0.92348974988729       -2.33750705773231
C           -2.49103112453097        0.58261357784475        0.10156608684541
C           -3.65465952117944        1.20986418377293        0.57359176820839
N           -4.60734754402612        1.72260869201647        0.97038170378946
C           -1.29258819101274        0.98285890267546        0.64247372335661
N           -1.25747820966753        1.88958328655284        1.64969381946209
H           -2.10499972119347        2.34524544656710        1.94621036445529
H           -0.37448044051980        2.27122417547279        1.93835167335609
C            0.00486180807571        0.46723356165345        0.19738010049222
C            1.03425155899881        1.32477627552074       -0.00681144756860
H            0.82674536968128        2.38886260293497        0.01841868277100
H           -2.22544417754822       -2.16632852299449       -1.95627561653270
N            4.21091582948211       -0.52934000494062       -0.66654864770316
H            4.74304718343075        0.23172988070039       -1.05641673081756
H            4.72307591289491       -1.28162187484626       -0.23850026936854
