26
 energy: -47.962992620556 gnorm: 0.000638352027 xtb: 6.6.1 (8d0f1dd)
N           -2.98402829636393       -0.32476969320661       -2.35506216933740
C           -2.42092739991967        0.17172271104490       -1.48719852181438
C           -1.66690276883942        0.81031945323027       -0.47830380737262
C           -1.93036289528922        2.11806583882671       -0.18944917737573
N           -1.39896813758522        2.85999991070704        0.79163332787702
C           -0.19207844263574        2.75489199870212        1.22847056469311
C            0.84822797263156        1.92229185369970        0.73067474769864
C            0.69697170958813        0.66616158168281        0.20984660520742
C           -0.59654027239006        0.00375826404303        0.11423124117903
C           -0.83124767791019       -1.30281762165332        0.44162069464942
C           -2.17514802484669       -1.75239917868331        0.48401739486037
N           -3.24602788315780       -2.14684074935172        0.59251241069697
C            0.12726026145195       -2.29184399560664        0.85596252496765
C            1.43857292072390       -2.32799758610088        0.55929264032320
C            2.19342760237655       -1.35956174385869       -0.19862295125325
C            1.86270632963518       -0.02193047077970       -0.32146598694365
C            2.77066293889283        0.81307455447764       -1.00002845183825
N            3.52221133383239        1.48156160294468       -1.55718387180433
N            3.34896336167302       -1.81147008472659       -0.73448507874379
H            3.93137302792166       -1.19633306300544       -1.27732443581041
H            3.60359369006862       -2.77942015370651       -0.65805579721429
H            2.00224704297948       -3.20101300477591        0.86214453347381
H           -0.29554469519977       -3.13624449400154        1.38551460969010
H            1.85979226638315        2.28249933788340        0.87009534278080
H            0.06852302485584        3.45035942354949        2.02026769265069
H           -2.73353012747720        2.61293974266516       -0.72455835814052
