33
 energy: -52.397204969434 gnorm: 0.000423821159 xtb: 6.6.1 (8d0f1dd)
N           -3.80199100075415       -2.21488966652624        1.62020019645938
C           -3.05184159277552       -1.51961873450850        1.08833702652809
C           -2.16493874756240       -0.66447717347389        0.41925027003165
C           -2.58015007673424        0.62854475020896        0.16873745850619
N           -3.78411510759687        1.06302710158268        0.66794264086424
H           -4.21330715109291        1.86242660112899        0.23437689930338
H           -4.40932246224075        0.36616659076316        1.04077205925622
C           -1.86483765007021        1.56828018991314       -0.64164895066657
C           -0.52611891379208        1.62139093136567       -0.84889460118044
N            0.01191018342479        2.48273102605119       -1.76934621808762
H            0.98432384196711        2.71571445318290       -1.65345592250844
H           -0.58058584754069        3.19773413238656       -2.15882056233169
C            0.45730564020959        0.75443453184956       -0.17578336314237
C            1.51906228495257        1.28845537504976        0.48342662382435
N            1.59805997729656        2.68601506941843        0.64646199504661
H            2.24469902884091        2.95861557453646        1.37320184483143
H            0.69884831741828        3.13324756300991        0.76794239649848
C            2.61221201518472        0.54762158260909        1.04048442985603
C            3.11178921054893       -0.63631655438763        0.59648665706083
N            4.31019852915180       -1.10575718901796        1.11754786736349
H            4.58530693112735       -0.70933861604523        2.00233807359424
H            4.45545348043908       -2.10088029673919        1.05413029365525
C            2.59578903777887       -1.40863390008940       -0.49957575620351
C            1.32020115819394       -1.44329525314221       -0.94278125737137
N            0.95556870549023       -2.28731129147832       -1.96809997910415
H            1.68575835191971       -2.62068875578662       -2.57648593270826
H            0.06693657083328       -2.10969591629311       -2.40543634375831
C            0.21585576931100       -0.67785820204801       -0.34175547763242
C           -0.95582997531860       -1.28114266707103       -0.07387447776668
H           -1.01241809838932       -2.35737465883004       -0.18766805521224
H            3.31076259709183       -2.07363550618649       -0.96962875235865
H            3.16660891750204        1.05179839691103        1.82480223217922
H           -2.47566302741451        2.32798438445729       -1.11863448582239
