31
 energy: -53.777244747331 gnorm: 0.000592728030 xtb: 6.6.1 (8d0f1dd)
N           -3.97690980287943       -2.56784992270261        1.88616791701049
C           -3.38325525483439       -1.78641961295472        1.28785126779365
C           -2.64751065133986       -0.83983977201919        0.54742227689185
C           -3.28552807786487        0.30391654193648        0.15544860331201
C           -2.77472763293542        1.32342267614350       -0.68078971198217
C           -1.46299558408229        1.62369930923879       -0.90392985187327
N           -1.09925985208396        2.51208194192788       -1.86986180186167
H           -0.18797706882004        2.93430713700843       -1.80229170881424
H           -1.81577757586137        3.02264592546544       -2.35829577419327
C           -0.34002253110974        1.02181307191742       -0.16121972645608
C            0.61522564523809        1.79464289736088        0.41951734948552
N            1.69817927088869        1.37081019649106        1.13382585907146
C            2.36726688588334        0.28895356981579        0.93616519899235
N            3.39053444591596        0.03084197177153        1.79094697513262
H            3.64197784127685        0.75506247202878        2.44114658637896
H            4.07902315836685       -0.66107459227134        1.55004020107444
C            2.18050529118310       -0.68642143082071       -0.14117751030992
C            3.33115137604579       -1.34811750284833       -0.59263177174102
N            4.28419943643851       -1.88524622888205       -0.95283308810899
C            0.96073916275017       -1.01779793358669       -0.67612570348233
N            0.85292411050623       -1.90459322293992       -1.68844303701641
H           -0.05555699376157       -2.20395539394545       -1.99554089718355
H            1.67335626080179       -2.35311614801698       -2.06177062365549
C           -0.29915864294167       -0.44074895831514       -0.17856308510104
C           -1.32203120354160       -1.25111593464216        0.15059569114686
H           -1.15353055921965       -2.32249152286464        0.15557915394636
N            0.52638506519203        3.19498378935390        0.38639143916536
H           -0.40843673326006        3.55229399195722        0.53317282230151
H            1.18597355137223        3.60313847723090        1.03543434756514
H           -3.51395581447117        1.93751235958783       -1.18166795732874
H           -4.32810334205097        0.40073664827477        0.43534491693945
