30
 energy: -49.242391336501 gnorm: 0.000747578797 xtb: 6.6.1 (8d0f1dd)
N            4.04277985587009        1.74327069336216        1.31327363433276
C            3.14966981794775        1.16294832992184        0.87379708306765
C            2.08001579369464        0.45234242329420        0.30981148179964
C            0.93138760602537        1.24460205528281       -0.05252309219270
C           -0.33389638531456        0.82019490082935       -0.21539863794346
C           -1.38293208187944        1.75661109904360       -0.66202715077944
N           -1.05181973680317        2.55560246211454       -1.71040748765704
H           -0.17507438926639        2.41643457995528       -2.17978655086825
H           -1.75610746875450        3.11288885790306       -2.16157646764144
C           -2.57640837332122        1.88662675487431       -0.02075981096144
C           -3.02259314601949        1.08029501407468        1.06227709032795
N           -2.73121518723670       -0.13506679896530        1.36210137595531
C           -1.87727231577605       -0.93378377422205        0.65200274756502
N           -2.23168175577263       -2.29144328387782        0.76066073009086
H           -2.94360152382480       -2.40298946340778        1.47111192018380
H           -1.44721455263259       -2.90901329433804        0.92461052986337
C           -0.78298405022055       -0.56176446612443       -0.06476950021399
C            0.00682655937121       -1.56509036329791       -0.80255874276397
N           -0.72089559959142       -2.33555295696911       -1.66846163966421
H           -1.70328998101912       -2.43278933631129       -1.46838122056218
H           -0.26849386540799       -3.12531996442219       -2.09932249062762
C            1.35075203106374       -1.70892230471090       -0.69817648553777
C            2.26850809516789       -0.88899724752748        0.03502033863905
N            3.43426764336732       -1.49688887361270        0.42032301675951
H            4.18523190612224       -0.91114618760650        0.74811059097330
H            3.69124653440531       -2.36621818854380       -0.01348279137063
H            1.79906076428104       -2.55496179733015       -1.20895395227571
H           -3.78728625843191        1.51733225135233        1.70032328833847
H           -3.22736108636443        2.69936404582482       -0.31802681630137
H            1.12812264142082        2.30681879173497       -0.14409482143527
