27
 energy: -47.690892287531 gnorm: 0.000836173707 xtb: 6.6.1 (8d0f1dd)
N            5.40265606441297        1.32275913676696        1.03564087808704
C            4.35419255693377        1.02734315535918        0.67399026260534
C            3.05840348111127        0.68659476495480        0.22798855102602
C            2.57710621734148       -0.55537395857423        0.52388475194889
C            1.34328036166376       -1.12563450768991        0.10686124335304
C            1.31326293958995       -2.53419849120692        0.25310654430595
N            1.33081340554703       -3.67414246289001        0.38685041583315
C            0.16683600716258       -0.51090558205780       -0.30715442021538
C           -0.90242272395913       -1.36801314082053       -0.74851355215711
C           -2.24030611418803       -1.20462586596536       -0.62381463873741
C           -2.95994705638066       -0.14989379513791        0.00088529967078
C           -4.31680761085753       -0.39853304394589        0.28225984261441
N           -5.42778644809873       -0.57289988188461        0.52167746002363
C           -2.46746046652009        1.12255759029548        0.28859327109291
C           -1.17496495333821        1.59059228511937       -0.10139586585249
C           -0.01948496271735        0.92235880408643       -0.36907054437825
C            1.08606728997553        1.74236303239410       -0.86693795990092
C            2.39647017299472        1.66091108692447       -0.59997731811844
H            3.04771899732802        2.41676000184913       -1.02231880226714
H            0.76257041356643        2.54956118572768       -1.51364899123569
H           -1.10581656507231        2.67262091861843       -0.14675361234243
N           -3.28631717374415        2.03275517398985        0.85762680961030
H           -4.22720316645436        1.77887471879277        1.10845418581894
H           -2.96826840528323        2.96700958550057        1.04284844076935
H           -2.86194395592668       -2.01985899369943       -0.97419908529161
H           -0.57286966862978       -2.30178321646950       -1.18756277613397
H            3.23196002314236       -1.22468462273872        1.07111195767964
