22
 energy: -39.496141070261 gnorm: 0.000881791999 xtb: 6.6.1 (8d0f1dd)
N            4.55612805044539        0.83535770921833        0.00256383818232
C            3.42818698977842        0.62521952199855        0.07919354647460
C            2.05202816044009        0.34693589738309        0.14935684605291
C            1.23579175910177        1.28032499666514        0.82395709556065
N           -0.03877996766074        1.43328291298661        0.71281972600174
C           -0.91518113723407        0.68328923077823        0.05344927325531
N           -1.83275281495482        1.24821384438073       -0.66964234935025
C           -3.03757140908591        0.81420954326966       -0.97096756498062
N           -3.79400636853505        0.00024456652841       -0.28878243071872
C           -3.31170308918860       -0.91358314321998        0.56062069802253
C           -2.03235027600415       -1.39829700249574        0.67712486560122
C           -0.84398225291819       -0.78347322495750        0.19001223102761
C            0.32294928264022       -1.45968064876785       -0.06592300182918
C            1.61402001788344       -0.92313589089746       -0.29579375892026
N            2.53361107965522       -1.75163191839442       -0.83435537490001
H            3.48982944185736       -1.45225922400343       -0.92939784787844
H            2.29562030627647       -2.70116594918852       -1.05933200013360
H            0.25029049246834       -2.53843379314024       -0.14622342072859
H           -1.89318556082617       -2.31215045047282        1.24229292583401
H           -4.09549074137046       -1.42687229892437        1.10924722145110
H           -3.50629922767299        1.30736206884016       -1.81648425275341
H            1.73133479880220        2.00457340261585        1.46299025812867
