25
 energy: -42.664382957267 gnorm: 0.000569409653 xtb: 6.6.1 (8d0f1dd)
N           -4.92158532720465       -0.19982541614446        0.42372818617561
C           -3.77345059342306       -0.20824670038899        0.33721794278381
C           -2.37163253013125       -0.19601333220353        0.22870166545832
C           -1.79769551061502        0.94242570851118       -0.38988543911707
C           -0.43588040610476        1.26823630830381       -0.39075753339766
C            0.64130258668145        0.47698953785819       -0.03993377811630
N            1.76752560421771        1.05382981938657        0.35338334668866
C            3.02070302012408        0.68367108849541        0.30904502937575
C            3.55268254896987       -0.30709876379778       -0.56440380759165
C            2.75232816281846       -1.30115977879098       -1.06124448794798
N            1.56371395884940       -1.65862784997724       -0.60069803802846
C            0.61670525015766       -1.00002550575047       -0.00442769427094
C           -0.41395323227298       -1.70666957999795        0.65676100039133
C           -1.71794208541558       -1.31533461011180        0.77449250685169
H           -2.38130807813414       -2.01144733634817        1.27630815881739
H           -0.15101985032346       -2.69635672056089        1.00449262447711
H            3.14419732343388       -1.98144947399600       -1.81038237557420
H            4.60511652315870       -0.28118556074030       -0.80195920407439
N            3.88001487618483        1.43689947548586        1.04405547541050
H            3.49243206443188        2.09226995393965        1.69964181711410
H            4.83537954711230        1.15019763725402        1.14984294520651
H           -0.19465545514958        2.29516192762577       -0.63892212094597
N           -2.64875138498760        1.85057955563844       -0.93220140249182
H           -3.64151587017930        1.73961700580640       -0.81286466452954
H           -2.29718495900678        2.73497343070899       -1.25212105946188
