25
 energy: -43.452666121484 gnorm: 0.000577806550 xtb: 6.6.1 (8d0f1dd)
N           -4.78567393144798       -1.07904885670116        0.07277835208598
C           -3.67803786209843       -0.78195423978629       -0.02022962162002
C           -2.32980662989102       -0.39242044372349       -0.12902061913429
C           -1.44979442585420       -1.36694386442105       -0.62648084063365
C           -0.08075171901258       -1.37720504025512       -0.65680703170569
C            0.81017961231215       -0.35075358519717       -0.26824013701946
C            0.43318220006370        1.05104624878113       -0.33648269119178
N            1.31479649601115        1.89968671937471       -0.88452475410628
C            2.56704074053990        2.10175381417239       -0.71211501993161
C            3.40606361442912        1.44294856218863        0.21613943608369
C            3.16325240301463        0.15155285888606        0.59980841624962
C            2.08534333281385       -0.68670513952690        0.22533140105513
C            2.30319999743155       -2.05107984969511        0.52164660580814
N            2.51915923763697       -3.15178535608735        0.76912493398271
H            3.93753505102244       -0.34613876435440        1.17327531019491
H            4.34452316854437        1.90468021055086        0.48230873248994
H            3.00598511150894        2.85277571270301       -1.36240068587852
C           -0.79217419025838        1.57612617084377        0.02025769651443
C           -2.02204926979972        0.93765581162362        0.24696522359188
N           -3.02116303746957        1.69142448903898        0.75553661696765
H           -2.87132294202190        2.66373169730759        0.95756789354372
H           -3.95101398351129        1.31392728497701        0.83244838272481
H           -0.80992394742185        2.65776382868011        0.09263582561240
H            0.38209295716339       -2.31301485805159       -0.94455971445272
H           -1.93560599990637       -2.28332295892749       -0.94212031523265
