24
 energy: -43.740616231066 gnorm: 0.000795726996 xtb: 6.6.1 (8d0f1dd)
N           -4.97921230670239       -1.12967109706352       -0.06640817186570
C           -3.84692081016321       -0.94122920157339       -0.07737694427436
C           -2.45110589404267       -0.71671707488534       -0.09261597128386
C           -2.02297351798224        0.47918298459388        0.50055404220797
C           -0.76854882300075        1.05294153534141        0.45889141414540
C           -0.60109829284150        2.33178650325028        1.03182416392162
N           -0.45244861326430        3.35708052276166        1.52566066050483
C            0.38245718595567        0.50496756953586       -0.19130813447609
N            1.23482796122619        1.27961719268085       -0.77350638676292
C            2.48665644219992        1.12118591276841       -1.16879639361242
C            3.40837494806321        0.30103954524769       -0.57110480042350
C            2.98382539277916       -0.74116205964622        0.30091026838795
N            1.81229867584533       -1.33195361932306        0.21415749577452
C            0.63525474200832       -0.94763412579822       -0.21419794584392
C           -0.30840554132984       -1.88833028387210       -0.64630967471267
C           -1.67614951616262       -1.74026578126285       -0.65631076537963
H           -2.24355563032911       -2.57229927672284       -1.05728727360177
H            0.09447017360394       -2.84391287581762       -0.95309633489856
N            3.85978869331581       -1.28424401406132        1.17027589327014
H            3.57426099784269       -2.06521676934525        1.73366158624370
H            4.80484206055138       -0.95264555671923        1.22195390301280
H            4.46431036000811        0.45279065015499       -0.73106706063052
H            2.79317664894917        1.82547067601765       -1.93267162350769
H           -2.79585155012482        1.06676570953657        0.98459191230402
