24
 energy: -42.955211121632 gnorm: 0.000124435097 xtb: 6.6.1 (8d0f1dd)
N           -4.91773170084401       -0.48248654653853       -0.59786368904045
C           -3.77506215805438       -0.44642678916372       -0.46079946713885
C           -2.38906336498279       -0.35674466607885       -0.27274420605485
C           -1.90201650211306        0.77086265866951        0.47245035859702
N           -0.69894979685850        1.26999732090576        0.37578633460275
C            0.43113084445552        0.76826563558859       -0.08295274293113
C            1.35943308754970        1.64111504641287       -0.66707361313666
C            2.68576411466980        1.37328112226445       -0.98135519056034
N            3.49530853548358        0.44930145947128       -0.51820058390603
C            3.07905830671666       -0.52118404641423        0.31237436603910
N            1.91178940193779       -1.12673550016069        0.31908045050108
C            0.73429301961242       -0.66849449513153       -0.06211973597962
C           -0.22530519019869       -1.59094213466119       -0.50457409281213
C           -1.57825910912813       -1.40265876158518       -0.70773187914006
H           -2.10523795267051       -2.22092322815331       -1.18554450374835
H            0.17801346574408       -2.56291129447192       -0.75529112891973
N            4.03114768277865       -1.02805574617444        1.11993918545289
H            4.97894273647948       -0.72437455143609        0.98489390609399
H            3.83762470133105       -1.86598457990907        1.63868391778059
H            3.18922283203544        2.08541642977238       -1.62930010048283
H            0.96548288679367        2.60647969486634       -0.95529730746398
N           -2.76725322229331        1.43292379865975        1.26853814213170
H           -3.74772885969164        1.21092854084038        1.23990797448017
H           -2.46269849604742        2.28457572932672        1.70682040553746
