29
 energy: -51.139416123368 gnorm: 0.000587177228 xtb: 6.6.1 (8d0f1dd)
N            1.01621692114306        3.67983791311125        1.78449756157019
C            1.03629073263614        2.67619066090647        1.22606551314932
C            1.05895165058586        1.43801409276439        0.54884333559706
C            2.26249977262190        0.79816537658443        0.49248359211903
C            2.57801021909139       -0.43948342152735       -0.10987311159119
C            3.94658583743161       -0.72070499747242       -0.27813123385883
N            5.05856514544244       -0.97194388408147       -0.43023677706045
C            1.66518798947987       -1.44686068896910       -0.44631384900805
C            0.26436507295864       -1.40318790409779       -0.20572008736323
C           -0.58967215994627       -0.35527122471876        0.00256751972122
C           -0.22044561317791        1.04774440033471       -0.03994672900369
C           -0.99916356515337        2.04501137850758       -0.55131312410040
C           -2.31352283472632        1.98045311328371       -1.07587261116503
C           -3.26635453485916        1.05198426355548       -0.82876926868392
C           -3.14592808174863       -0.09104098036128        0.02641225906356
C           -1.95218214360059       -0.70027219117822        0.38414821455731
C           -2.05341197408347       -1.85716994174696        1.17796664556316
N           -2.16402736639503       -2.80058617162585        1.82878501639883
N           -4.31384589924534       -0.64331614222039        0.43508483980590
H           -5.18618266170227       -0.19320194501530        0.22651164262901
H           -4.30976336187159       -1.42783886022541        1.06463931621222
H           -4.25461731962715        1.21284037849304       -1.23948962614907
H           -2.60418005465240        2.82898474496929       -1.68220929193551
H           -0.54187539761824        3.02560832716502       -0.60319105514970
H           -0.20205141484196       -2.38228413386021       -0.23319923398028
N            2.14279866875470       -2.60123916225673       -0.96310033290628
H            3.13599868581174       -2.73481748165127       -1.05785491977692
H            1.53415546146721       -3.39014296066214       -1.09054110157482
H            3.10603625623992        1.32500107200497        0.92599802872174
