25
 energy: -43.444721505475 gnorm: 0.000387277347 xtb: 6.6.1 (8d0f1dd)
N            4.51761800939375        0.88286688820612       -1.10129805690296
C            3.41887622834610        0.82675617725529       -0.76849520631397
C            2.07382086617525        0.73901228019893       -0.35687805306089
C            1.32309732025236        1.88321413813316       -0.40517355808785
C           -0.00468626190247        2.07611310835409        0.01175643850485
C           -1.01207169793500        1.15716135085721        0.16397509417746
C           -2.26640826186555        1.62123038565129        0.71327361994191
C           -3.51315386372009        1.15215166485168        0.46768065955365
N           -3.91848754146629        0.30416592291898       -0.49893434305127
C           -3.18608846421488       -0.61906056712358       -1.01679323136259
C           -1.88023909345899       -1.03390522763006       -0.64378802271083
C           -0.88335330646709       -0.26725258533437       -0.09771110805186
C            0.34083970997632       -0.95223820352045        0.29699874488550
C            0.13375147468651       -2.24945767598140        0.80405297900262
N           -0.00533047196443       -3.31100161974907        1.22554200876025
C            1.65552963902636       -0.53774765174441        0.19337116716397
N            2.65120036042827       -1.35882105195525        0.59646809618078
H            3.61109002757688       -1.11064373482542        0.42673227207121
H            2.43607530454353       -2.28546447842780        0.92513479359101
H           -1.62757294803914       -2.05630153254398       -0.89781003762122
H           -3.67623523797890       -1.20249787364703       -1.79131240014506
H           -4.34484702855669        1.58889221314961        1.01035376629167
H           -2.17500326332485        2.45544846262210        1.39921324357988
H           -0.29065340651026        3.11088204743212        0.15494944433073
H            1.84078396050889        2.77287491845536       -0.74539609702487
