29
 energy: -55.167063728185 gnorm: 0.000589833278 xtb: 6.6.1 (8d0f1dd)
N           -5.77344719820961        0.27497873737063        0.64781668898885
C           -4.63745768152631        0.15062060660270        0.51525089525700
C           -3.25070431455322        0.03873965123836        0.32998029503769
C           -2.64408477733862        0.91625494553882       -0.63315285028405
N           -1.39217596233202        1.28076847295264       -0.60035185394546
C           -0.34330071445772        0.79342658215900        0.01841192769198
N            0.55051761522549        1.65215515418655        0.44509369459859
C            1.84620431494882        1.54535844124781        0.60064693382151
C            2.67989291358786        0.59116626778131       -0.06000132886098
C            4.02907324039190        0.93578647118366       -0.21918345708321
N            5.13462614930576        1.23484244996482       -0.34322137986496
C            2.27278198331663       -0.69787818203859       -0.45460197148821
N            3.18255764039519       -1.47835654961229       -1.08003326002661
H            2.98135088713307       -2.45054834460026       -1.24498070472369
H            4.12863048510733       -1.15255821578277       -1.18842948415489
C            1.01426607349429       -1.28827153531614       -0.14035350472551
C            0.96038062663461       -2.69009314531388       -0.26296600968853
N            0.94267640006274       -3.83587939389581       -0.36603884229749
C           -0.18775008856004       -0.65440990299428        0.22753896585758
C           -1.23852201302071       -1.36634270605534        0.81375563045223
C           -2.56061643306305       -0.98173516556889        0.97548826661682
H           -3.16782992792172       -1.62532527301404        1.60112786152894
H           -0.97674464979201       -2.33388710091035        1.22460613166930
N            2.43270925941141        2.48801676754865        1.36456901511824
H            3.43411375224879        2.58131454875224        1.37585497963985
H            1.86117269239626        3.23558844385502        1.71820950289304
N           -3.41948860342034        1.46393190168378       -1.58860351111703
H           -3.01834555021456        2.15681545264590       -2.19642454504128
H           -4.41836173835465        1.35280495488205       -1.55200556855884
