26
 energy: -47.181596485782 gnorm: 0.000720765358 xtb: 6.6.1 (8d0f1dd)
N            1.00201233845869        2.64869080529493       -1.70480147900646
C            1.06677052217856        1.70632525552200       -1.04862402141094
C            1.21887260229078        0.51931857324510       -0.30394590911171
C            2.54157948726411        0.11833474785941       -0.04747623705673
C            2.90762716158748       -0.96866941265092        0.78752205361764
C            2.06141384646988       -1.96536760768956        1.18799019876078
N            0.91661889647303       -2.30214599136756        0.61853862114187
C            0.02681341635794       -1.61809615986405       -0.01947182199608
C           -0.90748250111872       -2.30338915695320       -0.85304281588577
C           -2.18315619378852       -1.90348059064001       -1.12114744803218
N           -2.92423267529669       -0.97768105207048       -0.51116503082047
C           -2.51112269219051        0.03050868881861        0.20549838983927
N           -3.45476754711475        0.68709767938349        0.90995957731361
H           -4.41073608158388        0.39726683189102        0.79472061902966
H           -3.25299250852525        1.58099784997347        1.32519910787997
C           -1.16619490205664        0.57654446036693        0.22356225993111
C           -1.06931067093415        1.93723439301367        0.57044573403759
N           -1.06183288651237        3.02698658144019        0.93869162893213
C           -0.00883281703852       -0.14966028478436        0.01306032727407
H           -2.76236254933401       -2.48746628924577       -1.82917784610315
H           -0.55923752958978       -3.23908099099464       -1.26708000427658
H            2.38991651071032       -2.66668551851587        1.94669207461230
H            3.93147359266076       -0.98873773495521        1.13412274970983
N            3.54718233773378        0.88784571964657       -0.52765225384016
H            3.34057305127764        1.75341074841087       -0.99799392204794
H            4.49351628372086        0.70408691416540       -0.24685415999173
