27
 energy: -46.115768979297 gnorm: 0.000386817032 xtb: 6.6.1 (8d0f1dd)
N           -0.52487199811905       -3.64790201553201        1.52104830102789
C           -0.79847994384565       -2.61528176467032        1.09215525204795
C           -1.15261187264801       -1.35205582225055        0.58255631601282
C           -2.51776587134290       -1.11313932857778        0.50419224013671
C           -3.19743676614682       -0.03557507878559       -0.02571338947019
C           -2.66081889228700        1.19088447273974       -0.43392595056511
C           -1.33717037906411        1.61632878628473       -0.26917086951709
C           -0.19115462772344        0.93003946633610        0.10366571961439
N            0.83210954116236        1.70825593673128        0.47081665156990
C            2.11871253959266        1.50033841596549        0.44948150541079
N            2.83248357502251        0.63378962855028       -0.29373894899651
C            2.34970114736872       -0.54896295202064       -0.61392193324752
N            3.18341090893390       -1.32256003798436       -1.34886619643978
H            4.11270845462029       -0.97924886041900       -1.51724003230239
H            2.99329736588096       -2.30105376943294       -1.46916647885936
C            1.11463916042459       -1.13723755609782       -0.22224628746330
C           -0.06064231850445       -0.52219575429426        0.15450982997222
H            1.08531861907724       -2.21789812529515       -0.29906925064693
N            2.87550403567505        2.34643763925244        1.18736165656274
H            3.86528113896219        2.35993984462161        1.02019289202047
H            2.43001936064381        3.13622938029491        1.61841288301072
H           -1.16393166102856        2.67352160000616       -0.43511905483207
N           -3.52648944300826        2.09121073180660       -0.98558270908096
H           -3.23010418542177        3.04411071563466       -1.10360251642603
H           -4.51492274151673        1.92049018011823       -0.92380452143591
H           -4.27274519169115       -0.13354928498067       -0.10491004451163
H           -3.13791052951654       -1.93078323719170        0.85646669250592
