20
 energy: -40.072312470406 gnorm: 0.000242884152 xtb: 6.6.1 (8d0f1dd)
N           -0.86224770521686       -3.29820891453699        1.52288512156806
C           -1.02944232399319       -2.27231581148409        1.03732572305892
C           -1.23476810887169       -1.00951642689355        0.44321727236676
C           -0.09726666917790       -0.29834924675159       -0.01769653455598
N            1.03832354891555       -0.83770304645131       -0.34414158384191
C            2.24226119985931       -0.27127530767985       -0.36124324842327
N            2.68981852901915        0.62230904728311        0.53292483012068
C            1.84944491409174        1.41751299486680        1.15115417860787
N            0.65664009567776        1.79603384175849        0.76523167046394
C           -0.19500611788782        1.19131331024630       -0.02034620081168
N           -1.07255215662955        1.81549686747159       -0.77161260281988
C           -2.25597856645849        1.34208979830217       -1.06190654695645
N           -2.97710880384767        0.49129417232832       -0.36484005721470
C           -2.52491065796103       -0.46719029164865        0.41090262833683
H           -3.29518477367337       -0.97477994374565        0.98372552670977
H           -2.76819346493200        1.82012457309824       -1.88997601042725
H            2.23824977746525        1.93213219084278        2.02302206721254
N            3.14244920530665       -0.77811554158475       -1.21373002604546
H            4.10346807350531       -0.50260627826296       -1.10909456302672
H            2.90438731710913       -1.58683263415827       -1.76120306182196
