28
 energy: -45.009851782532 gnorm: 0.000414113516 xtb: 6.6.1 (8d0f1dd)
N           -2.11964370589640       -0.52054485453814       -1.72058392064856
C           -1.52198811663516       -0.87677976357892       -0.55673695743484
N           -1.65045508259022       -2.07436377124421       -0.11938702884350
C           -0.88432132835911       -2.64420148151800        0.83945006564934
C            0.42703604952761       -2.41724664486730        1.08728944372347
C            1.21975149580416       -1.36269984809617        0.51654153008431
C            0.70130053735710       -0.17883195499904        0.09608143179731
C            1.52265394826440        0.87665360459481       -0.55698870887755
N            1.65106691494977        2.07445702531872       -0.12022419868453
C            0.88481455268123        2.64477598876430        0.83823192391846
C           -0.42657354604581        2.41794567042789        1.08602273811085
C           -1.21921840251177        1.36311250222497        0.51570613011142
C           -0.70071550611394        0.17903360431239        0.09590473926719
N           -2.60040435864445        1.59977743937743        0.41058647360379
H           -2.92518491257137        2.32544065663794        1.03413009209515
H           -3.16673520559810        0.76478506164227        0.48149489478316
H           -0.95069381068040        3.11984328075751        1.72298761393479
H            1.38128831331498        3.47180762486585        1.33255101366369
N            2.12045343616941        0.51983437529628       -1.72058273562295
H            2.69579324723875        1.19993401050810       -2.18784403407032
H            2.27817063513081       -0.45625824717060       -1.90066752739316
N            2.60095048812414       -1.59941732134463        0.41171190509545
H            3.16727242530988       -0.76438936607887        0.48227119406169
H            2.92565384611819       -2.32476719811379        1.03566014956761
H            0.95107740294259       -3.11882431670796        1.72467158057800
H           -1.38085630240367       -3.47098486450704        1.33412284713592
H           -2.69492590103544       -1.20087903201358       -2.18757467111935
H           -2.27733879734679        0.45545722125071       -1.90117817268759
