27
 energy: -50.929181925239 gnorm: 0.000898475018 xtb: 6.6.1 (8d0f1dd)
N            1.50810326754498        3.51828514815094       -1.65229138350201
C            1.63509602117093        2.45618241869523       -1.23099613750398
C            1.78330100804600        1.16034938249898       -0.70184630166235
C            3.04364581460897        0.57774029071450       -0.81654886582468
N            3.54056185856297       -0.47735686384964       -0.20893420948245
C            2.80503917581918       -1.31121995191673        0.52879031639478
N            1.53386162247915       -1.63445958407948        0.35908929449677
C            0.56391764255127       -0.91830158727521       -0.14113495881757
N           -0.46404061581623       -1.55809617004503       -0.66354143733418
C           -1.73235285170150       -1.26347212673644       -0.67920948792643
N           -2.50898820238820       -1.98965037635583       -1.50867335459831
H           -2.08251648462879       -2.74606309155546       -2.01478759365343
H           -3.51091620212362       -1.94325522365235       -1.43783910710801
C           -2.37667173319831       -0.30090240081611        0.17251217867619
C           -3.73945591610089       -0.49502329012017        0.43035579614609
N           -4.85840399522282       -0.67233709281274        0.63929590646404
C           -1.76741851263296        0.88016253696330        0.62275176045952
N           -2.51099520854518        1.74433517260065        1.35131965150617
H           -2.15204980050823        2.65694928090486        1.56821525598048
H           -3.48578707504038        1.55657934947005        1.51523963920026
C           -0.45956022731894        1.30730958392513        0.27578525923937
C            0.60337951786211        0.55665628277645       -0.15540577650969
H           -0.28090865595843        2.37012029638280        0.39628950157263
N            3.48101867428019       -2.01192123609332        1.46079470491964
H            3.02591344247507       -2.78718155407979        1.90841307611352
H            4.48326746456270       -1.94391635638229        1.46888054831111
H            3.78001719232023        1.12299397019071       -1.40043755165916
