27
 energy: -46.892079715177 gnorm: 0.000894957413 xtb: 6.6.1 (8d0f1dd)
N           -0.54367356553161       -3.43608409456879        1.18473294089958
C           -0.72828157934143       -2.35732065849382        0.83946752941211
C           -1.00225819502180       -1.00116753027774        0.53731146793576
C           -2.31083117989320       -0.58031035389469        0.94794766550259
C           -2.99009531959224        0.50100634938390        0.52462791697864
C           -2.51864266054407        1.53182602194751       -0.36674977472078
C           -1.21326309606814        1.84054896661037       -0.61063074478155
C           -0.01297785200516        1.19863499606625       -0.14668896924335
C            1.09013399495943        1.97571242860610        0.07473421830741
C            2.39767301009889        1.54851020113572        0.47937301186328
N            3.02292953833678        0.45400406565568        0.12214117832372
C            2.46706543684117       -0.54960544876479       -0.55085796786743
C            1.15335112291195       -0.94247054034625       -0.59446613448263
C            0.85325527267389       -2.10397751829937       -1.33561924815883
N            0.61635183773602       -3.00211689465756       -2.01173622431718
C            0.00820325234082       -0.25116900603182       -0.01451366876232
H            3.19313793227314       -1.18720537135990       -1.04587789751773
N            3.13403586844421        2.42487004922563        1.19701278031984
H            4.05220270347351        2.14291907247544        1.49188151411941
H            2.74136237950659        3.28334259046556        1.53732858987835
H            0.94615185115658        3.04870980563151        0.03469842949861
H           -1.03637745587751        2.72779857540806       -1.20914185090928
N           -3.49904112046210        2.34602639827863       -0.87281618253393
H           -4.44613287906984        2.00997944109738       -0.87040133554441
H           -3.25353863552094        2.97779258342441       -1.61577487766611
H           -4.01459084918331        0.61808112827488        0.85350976112920
H           -2.82510349524150       -1.27890888039204        1.59640899613689
