31
 energy: -53.776975500341 gnorm: 0.000397721902 xtb: 6.6.1 (8d0f1dd)
N            3.98720314632260        2.13999117361285       -1.82493221346147
C            3.35323014814129        1.36862984930638       -1.25444282644726
C            2.54702669265101        0.44354523270362       -0.56552962244047
C            1.25442190180929        0.91963256952415       -0.10678517152642
N            1.13745865294156        2.29841602585981        0.08714123126467
H            0.22125385222647        2.68014445432155       -0.10145497649275
H            1.87252194774028        2.83440106416277       -0.35367239793970
C            0.19175630312763        0.09602732558924        0.11935372390300
C           -1.07101309670794        0.60829995969168        0.67186988721632
N           -0.97328481640485        1.30196387903492        1.83521067751798
H           -1.79733568401418        1.72381091863628        2.23217406893833
H           -0.07391156156594        1.66000120527580        2.10707567781577
C           -2.28796003088026        0.36010342829699        0.08613276009015
C           -3.41172588993475        0.99332315894092        0.64251791446317
N           -4.32557746774400        1.52401101087741        1.10063321638942
C           -2.54306869572046       -0.48502402006125       -1.07606732537438
C           -1.84220520261149       -1.60985103010766       -1.37731587040555
C           -0.69412021937959       -2.09990549876127       -0.68661465759523
C            0.21486206696905       -1.35496052178628       -0.03247374406905
C            1.33791157945171       -1.94297725719123        0.74158624641634
N            2.57875444459423       -1.74681858956852        0.46857462698283
C            3.06221227417756       -0.80921638300174       -0.35235201379172
H            4.03523950318853       -1.04798879674086       -0.76525237406518
N            1.00236532961216       -2.70490970698320        1.80025805538890
H            0.05930525555056       -3.03451638543770        1.90139362368481
H            1.73147163597460       -3.10749464450403        2.36412898447962
H           -0.52327046174011       -3.16838875543971       -0.74873966631687
H           -2.22169451512089       -2.23120718087985       -2.17803966433621
N           -3.62070877168466       -0.10682496231480       -1.84859473904862
H           -3.99170483944226       -0.79926404416248       -2.47835476696159
H           -4.30600874808222        0.49703891482990       -1.42265923778379
