29
 energy: -50.344341064779 gnorm: 0.000916098858 xtb: 6.6.1 (8d0f1dd)
N           -0.21600002683590        3.57031286825560       -1.22851049602945
C            0.12655997194824        2.53070849204160       -0.87886790393460
C            0.56474296327775        1.24956749718667       -0.47825684462769
C            1.92913020582964        1.00890618988012       -0.59606920046952
C            2.67182262700427       -0.06787061015125       -0.14919538740608
C            4.06632649285750        0.03182182313866       -0.29490458163329
N            5.21067672709332        0.08834167677381       -0.40746291094879
C            2.17025375560383       -1.28606521440591        0.42594321542829
N            3.10860035365873       -2.13433901310880        0.92850574974566
H            4.08483564582766       -1.93780647937072        0.78828803775527
H            2.84372643967271       -3.05791751081418        1.21982868025288
C            0.85404744254428       -1.69569762669261        0.44780098399291
C           -0.34953926875087       -1.03661326356466        0.10678344223598
C           -1.45328729346080       -1.83160132870513       -0.17768702384308
C           -2.80428076177812       -1.50707154649305       -0.42356146888423
N           -3.57948580418606       -2.52055072990040       -0.91124298136142
H           -3.13533472411807       -3.33221383011637       -1.30203594582984
H           -4.51173999103268       -2.31331278474716       -1.22179510579637
C           -3.44885664200443       -0.32791428106105       -0.06596149704089
C           -2.80395901481188        0.74417252597676        0.56787971646612
N           -1.53306045924945        1.05795654755364        0.43616607482480
C           -0.46701377362871        0.41259584071066        0.03171667246769
N           -3.52985969002493        1.61481310829156        1.31555688337767
H           -3.07964287405736        2.47515467882438        1.58009371726242
H           -4.53201465605607        1.60765512161600        1.25013148512550
H           -4.52406734671071       -0.28564849606627       -0.17112557018246
H           -1.23203781117618       -2.88723132766967       -0.29432373889496
H            0.71455080039734       -2.72331000481598        0.76932570566188
H            2.50175269616981        1.81957567333801       -1.03581583711442
