31
 energy: -53.791442049527 gnorm: 0.000872769293 xtb: 6.6.1 (8d0f1dd)
N           -4.97440617213864       -0.34233322197666        0.61867175664793
C           -3.83931412219711       -0.34356694508557        0.41210892823547
C           -2.45849549933704       -0.35008332698818        0.17206684062248
C           -1.92873356700597        0.81606429637806       -0.45179766593659
N           -2.83889419273653        1.68084804171540       -0.97430090446477
H           -3.81840588891878        1.53703382457643       -0.79650749945202
H           -2.53465978546320        2.58733070298410       -1.28715476018915
C           -0.57953481586991        1.17589507252934       -0.51623585766718
C           -0.30750093399885        2.45882106580795       -1.01676216989503
N           -0.09896636186900        3.51648596928338       -1.42604856482916
C            0.58108933500274        0.44504695347944       -0.08165077214070
C            1.66005832698839        1.16213842202523        0.37400280525706
C            2.97571673185644        0.73988015818878        0.71668077315020
N            3.69040127317118        1.60882986867524        1.49200174326692
H            3.34820868863871        2.54709117262265        1.60565865269380
H            4.68199004741183        1.47239847352290        1.58386233118732
C            3.59237791714646       -0.41113078177148        0.27573754915972
C            2.96756057024986       -1.36346964305379       -0.56469547584452
N            1.69555963406234       -1.63461270254058       -0.62948686001989
C            0.61824345417637       -1.01329018039725       -0.15135791260365
C           -0.43536296470785       -1.83378786491336        0.20716046065932
C           -1.77004295405706       -1.53430788291596        0.50582113291078
N           -2.49119056052478       -2.52213160624280        1.09784614040548
H           -3.48588569978490       -2.42400175500474        1.20872949753490
H           -2.07628920242315       -3.42547863757148        1.23582113467304
H           -0.16798564771137       -2.88093378591199        0.28275444672139
N            3.77148153990554       -2.20015410910050       -1.28437380914076
H            3.31564274586284       -2.78520117416787       -1.96373456719652
H            4.72371139688661       -1.93469142895399       -1.46090183429466
H            4.64502880865511       -0.54472408632863        0.48439270825382
H            1.48249200582831        2.21924656413830        0.53770454209463
