30
 energy: -54.083300135799 gnorm: 0.000670473309 xtb: 6.6.1 (8d0f1dd)
N           -4.99194248808272       -0.88044089977177        0.35858673563651
C           -3.86321967989883       -0.68308221596653        0.22584838938204
C           -2.49254444131568       -0.46960199786733        0.05541976309337
C           -1.94557435050383        0.76241578305249        0.45365035935776
N           -2.77463879061122        1.62973604708168        1.08779730675819
H           -2.47896854604300        2.57807888157549        1.24673458856464
H           -3.75396309166438        1.40964495961147        1.15768764513127
C           -0.62483779156436        1.20854010157165        0.17842025799959
C           -0.43260803145745        2.58806616352730        0.37249458548769
N           -0.31617744944774        3.72378139203533        0.53014014983522
C            0.54228370115833        0.47493601589878       -0.16152170902715
C            1.67531839788308        1.18147695798771       -0.54632695059026
C            3.01434581288114        0.75767470842609       -0.57729861279311
N            3.57801803746898       -0.26103956860868        0.05879516556357
C            2.94641450599430       -1.28806309195946        0.60609510386153
N            3.74682376029786       -2.07759962847215        1.36366264616157
H            3.42028067395119       -2.96291556157282        1.70312613956649
H            4.72832738953542       -1.86700479776484        1.39103323619320
C            1.62249622704424       -1.70954144790414        0.39621387867763
C            0.54389951145690       -0.98791968123786       -0.09183745431484
N           -0.47826348340316       -1.71270758101472       -0.53276909849801
C           -1.75516309482085       -1.48223853293376       -0.63413701490054
N           -2.45215875397834       -2.34779936040631       -1.41058164143452
H           -1.96617281685390       -3.14838847425707       -1.77426722640699
H           -3.45616966524899       -2.36628413092426       -1.35785093673388
H            1.40997618500245       -2.74871265442003        0.61337303752880
N            3.90228537539943        1.53763378179676       -1.24498541488536
H            3.62783509494057        2.44598082573546       -1.57314042098157
H            4.87930863465951        1.34313036876318       -1.11429161581273
H            1.52141000231601        2.21686788580992       -0.82703448211672
