31
 energy: -53.792333353500 gnorm: 0.000472196098 xtb: 6.6.1 (8d0f1dd)
N           -5.31305544214278       -0.15149366350906        0.10193790219799
C           -4.16373624929513       -0.05594796074555        0.06777346151619
C           -2.76907428247718        0.06439667473294        0.02887382965179
C           -2.24244322384234        1.29085473510780       -0.45976674362531
N           -3.14859391929220        2.16406723454296       -0.98493254611688
H           -4.13166797546019        1.97234523564976       -0.89634901876977
H           -2.86601675870466        3.10364936878321       -1.19814766409118
C           -0.92480543816818        1.71202337424407       -0.40507396984527
C            0.28767726300483        1.08704577295603       -0.05514151738324
C            1.34656728206272        1.96233346209299        0.19637087832768
C            2.70391627917879        1.72702884118433        0.44659025107114
N            3.44284517638906        0.66566803008782        0.15210164467990
C            2.98230944434006       -0.49642627582119       -0.28050308545486
N            3.95648931303388       -1.29926867795073       -0.77369865557043
H            4.90529705008628       -0.98477415610397       -0.67282881869751
H            3.77043607015323       -2.26510624442646       -0.98146678233470
C            1.66234410812889       -1.01427460373156       -0.21883515111536
C            1.59078213882145       -2.39124603750585       -0.48435750308333
N            1.59212658455683       -3.52158848173415       -0.71575430175192
C            0.42171448669760       -0.35685141849963        0.04688342642613
C           -0.62951975022214       -1.20247960356851        0.38443177391865
C           -2.01605643487324       -1.03884487865359        0.47471764805922
N           -2.70641598727575       -2.08363084973164        1.00565268582422
H           -3.71092251595446       -2.09362556524193        0.95098941308818
H           -2.23299784371211       -2.95459078154824        1.16926435099207
H           -0.32036511288432       -2.21586352948756        0.61844585855409
N            3.42548880846365        2.74128255570076        0.99246989442368
H            4.42291283518921        2.63108122963506        1.03588830334218
H            3.02783391381049        3.65639889591374        1.09594732267958
H            1.06550245391317        3.00701546818008        0.27063357028052
H           -0.80331969661518        2.75416165474352       -0.68442919789852
