28
 energy: -45.787116506982 gnorm: 0.000628837171 xtb: 6.6.1 (8d0f1dd)
N           -4.85527696547980       -0.51224555350867       -0.91358479785059
C           -3.80780737530609       -0.28597160051879       -0.49688839758986
C           -2.53439623949302        0.00236216678786        0.02419284828499
C           -2.49051636747474        0.92754488994367        1.16785575898501
N           -1.55616173247495        1.71455273268890        1.49576574424485
C           -0.39396067254138        1.86030380940793        0.77263432111718
C            0.32990526037957        0.91402831398898        0.14414807005968
C            1.54370752056517        1.32518418658351       -0.58486475626133
C            2.72488633882895        0.66961253706362       -0.55644111629477
C            3.03294457668944       -0.55151576048637        0.13202126336416
C            2.14101809724831       -1.53306881010794        0.44373864190935
C            0.74524748972237       -1.57374480544831        0.14426219306423
C           -0.08584772223769       -0.48897037353349       -0.00249975300539
C           -1.45041477864752       -0.67867186496898       -0.43196700638869
H           -1.62162210107270       -1.44989825508766       -1.18043965570165
N            0.20795075983633       -2.84576374266178        0.04214462009572
H            0.78987601300757       -3.59994117633912        0.36620367614128
H           -0.77143619348382       -2.95864280239716        0.24141528597551
H            2.54897882751096       -2.44044743948198        0.87497833918363
N            4.37962611158378       -0.77439383436747        0.33748545920161
H            4.97165155597389        0.03752787311780        0.39572443655418
H            4.62396890070262       -1.52358742289677        0.96395659936451
H            3.56060182685039        1.12678455305607       -1.07307669107772
N            1.43336473322431        2.51712789527035       -1.26244966315198
H            0.50436759577509        2.84244794232129       -1.47130603405048
H            2.13416823315344        2.71934311634251       -1.95701431704750
H           -0.00955971748003        2.87158483962019        0.83109314196776
H           -3.37581438595938        0.93766308041093        1.79780359380660
