31
 energy: -53.790385859542 gnorm: 0.000457022214 xtb: 6.6.1 (8d0f1dd)
N           -5.09305898512190       -0.38707480167083        0.47955239118230
C           -3.94899995054740       -0.37366910083203        0.32959673164386
C           -2.55893196263904       -0.36830744172409        0.15696560336044
C           -1.88652540571050       -1.59159307842952        0.38153861407884
C           -0.53950469118624       -1.86424087579101        0.15634419940588
C            0.57819120688750       -1.05453783858456       -0.05289181151769
C            0.55051317721835        0.39743853720186        0.02374295230889
C            1.65072602845515        1.14610143865670        0.40455237170176
C            3.00895860137542        0.79494678923263        0.58065190017591
N            3.66624798523745       -0.25473106162136        0.13138041049049
C            3.09474248896755       -1.33772097887055       -0.39999233561018
C            1.76255282717192       -1.74119538397098       -0.37702100267917
H            1.61796642853495       -2.77774088495353       -0.66162497318901
N            4.01142362732682       -2.21547194508572       -0.89618003201035
H            3.71720935775673       -2.98894858387396       -1.46381098678715
H            4.95806567756688       -1.88898628414465       -0.97405141979671
N            3.78826560336726        1.69383137434277        1.23283456581256
H            4.78023717689678        1.53315211134413        1.23094820035207
H            3.44614860016052        2.61790831140165        1.42480475440357
H            1.45344419628233        2.19318171710447        0.60346032243106
C           -0.61499451304274        1.15915623845622       -0.32617044029929
C           -0.34032366178372        2.47829466814817       -0.73075325422220
N           -0.15081701794960        3.55903295644574       -1.08564909907197
C           -1.98351488647392        0.84033024914459       -0.30454490385099
N           -2.85534594227278        1.79497737840566       -0.72055772151318
H           -3.84340262588048        1.65029964497898       -0.60242119834886
H           -2.52113818653173        2.71565803424972       -0.94801424315524
H           -0.30626139000538       -2.92238389960032        0.21789876670303
N           -2.65187838048288       -2.63390996550167        0.80518923971930
H           -3.64950591245463       -2.53116867961478        0.87340493349677
H           -2.25481924760746       -3.55281731007837        0.87350834764670
