36
 energy: -71.590320642508 gnorm: 0.000571201360 xtb: 6.6.1 (8d0f1dd)
N           -5.58360846643553        0.16436756723952       -0.53253842980949
C           -4.44717795199278        0.10409725483959       -0.36416359329937
C           -3.05603156844819        0.02831866469421       -0.15888274069520
C           -2.41276057402342       -1.10101080007150       -0.68826408012493
N           -3.13766946934116       -1.94146477091804       -1.45363832915605
H           -4.12082324161989       -1.77469379921681       -1.59187319590418
H           -2.74722878807099       -2.82132162534636       -1.74863041165287
C           -1.06899749616310       -1.48859813824990       -0.39306062638731
C           -0.75856928856534       -2.82393010704470       -0.74164147203777
N           -0.54231705262313       -3.88501058669682       -1.12640031056683
C            0.00494199598261       -0.72415754122668        0.06763818144222
C            1.12065937469343       -1.42050674838185        0.61682077023012
C            0.78968751262038       -2.59933394508586        1.31927453834757
N            0.55665090562668       -3.51385830853321        1.97588244816894
C            2.48595921584141       -1.08623030407038        0.60033364563469
N            3.34104038392582       -1.88584095829106        1.26957365704170
H            4.33435266542283       -1.75163530506805        1.18003454445468
H            3.00013332425878       -2.71553574636739        1.72693521763942
C            3.05564216749699       -0.02768096245424       -0.16176323113641
C            4.44662361716411       -0.10342266834220       -0.36840590430241
N            5.58279666510136       -0.16488515219506       -0.53802336401030
C            2.41180100183686        1.10166165258069       -0.69031445743328
N            3.13601333313308        1.94198017468742       -1.45647985888177
H            4.11897187647396        1.77500103682627       -1.59582546055995
H            2.74545993702096        2.82204906381019       -1.75071655512048
C            1.06837305139086        1.48953934952734       -0.39359724038695
C            0.75799472261818        2.82488480342683       -0.74200376965704
N            0.54200404806339        3.88608424328526       -1.12661845396594
C           -0.00513302407775        0.72515659621689        0.06817456124600
C           -1.12054923549777        1.42113274058006        0.61867022823090
C           -0.78862771495991        2.59949130133890        1.32158309879785
N           -0.55069843695361        3.51466812685156        1.97546675155353
C           -2.48549146688584        1.08637815866164        0.60319683144654
N           -3.34004225755897        1.88550178416448        1.27397471893518
H           -2.99886596344177        2.71544299974000        1.73063561146781
H           -4.33343305601585        1.75155251438832        1.18492165955061
