28
 energy: -51.419629456056 gnorm: 0.000661327503 xtb: 6.6.1 (8d0f1dd)
N            2.13945872426839        2.57144331504701       -1.72587267933120
C            2.10044659957123        1.59849540881567       -1.11787044222731
C            2.08162456157579        0.34610941612934       -0.45777702690705
C            3.26072394485061       -0.40739232318138       -0.63142691225908
C            3.63297532442230       -1.55357937340662        0.02588761406414
C            2.80424976159171       -2.17514744109935        0.97823939512235
N            1.51905411967782       -2.12769486271731        1.01659820475325
C            0.59607176579187       -1.43474795195577        0.35936704088686
C           -0.57212951969314       -2.07240668305222       -0.00296978632141
C           -1.81103141256865       -1.51858507509368       -0.35601164589221
N           -2.71961095158018       -2.36254336719350       -0.89373567555429
H           -2.49179226864411       -3.33203034677151       -1.02109375860703
H           -3.66422762729216       -2.05934607933358       -1.06122042040113
C           -2.24103101066422       -0.19626066910283       -0.08527952424296
C           -3.60416791806926        0.06147283479777       -0.31512393982875
N           -4.72175413834616        0.26354022944145       -0.50740745363475
C           -1.49656355983185        0.88395267593767        0.45262246092710
N           -2.19339308315216        1.95849043813042        0.87806146205462
H           -1.70391554712633        2.79498176541555        1.15178200755541
H           -3.19063741794585        1.99880907401015        0.74781776252977
C           -0.08481626800939        0.97857679519710        0.48127731686792
C            0.44284765027847        2.22261124315819        0.88537204686617
N            0.83190675539488        3.22056909033269        1.30370070837229
C            0.85633284737464       -0.01410970883761        0.13856159023335
H           -0.52394764871016       -3.15410675521193        0.00418478688349
H            3.25965138337000       -2.79143467864832        1.74678745804891
H            4.63952575909339       -1.92302862472782       -0.09848700021635
H            3.99732351957348        0.05406321572024       -1.27871239364116
