22
 energy: -39.496322638599 gnorm: 0.000740530488 xtb: 6.6.1 (8d0f1dd)
N           -0.86125712798896       -3.61664703413323       -0.32131026256626
C           -0.34202246393918       -2.59562850421870       -0.24476365566070
C            0.32618402267743       -1.35511431404630       -0.16963094004123
C            1.67072252572190       -1.34186960799483       -0.61113266703577
C            2.62075706840418       -0.38450267545998       -0.41331530296036
C            2.39583188501049        0.85690877634084        0.26219544924707
N            1.26593675584527        1.51770330007813        0.28157476365741
C            0.04075291505304        1.10394015759752        0.01990833883691
C           -0.87812811707268        1.96497258849639       -0.59485349496676
C           -2.24912388872457        1.76682014519067       -0.74271166004179
N           -3.07490980809277        1.04510151944467       -0.01578728825179
C           -2.63998143724816        0.24078284179918        0.94652086157642
N           -1.53557545753602       -0.42637932275548        0.98440148737648
C           -0.41656097133559       -0.26317180560550        0.29389196820529
H           -3.34932189256304        0.03137179375719        1.74063051838196
H           -2.75666902932768        2.38403003411484       -1.47836555188345
H           -0.44060763198820        2.82045045602404       -1.09246356071564
N            3.45163637994722        1.47065084595231        0.82993150261914
H            3.31073957728427        2.34982714957065        1.29578239286026
H            4.36715698339352        1.06185168108082        0.79836026340116
H            3.63847855115978       -0.59961988694449       -0.70649761715652
H            1.99866507462123       -2.26531830649047       -1.07451737628031
