28
 energy: -51.419196224617 gnorm: 0.000696489372 xtb: 6.6.1 (8d0f1dd)
N           -2.57098119562448       -2.82079846040260        1.07057005616109
C           -1.60209305255846       -2.28467154481006        0.76747970713395
C           -0.37633741055900       -1.63690095097382        0.49035609881460
C           -0.42121418450676       -0.27511156018874        0.20757518401114
C            0.74014237032396        0.60224756292977        0.34443436228370
N            0.66422004265956        1.72795731720871        0.97286026275920
C           -0.34371558338647        2.50026144858123        1.32997289085342
C           -1.54485450895782        2.61483562037663        0.68346859202161
C           -2.07517558370276        1.64763352447163       -0.20554927172709
C           -1.61148941491146        0.31982466880372       -0.31107951274181
C           -2.38168821571554       -0.53539907670220       -1.12680783268980
N           -3.00995102249370       -1.17017780969467       -1.85120908015855
N           -3.18700468108716        1.98908114965619       -0.89510210569486
H           -3.68449620212781        1.29701572213442       -1.43064250694815
H           -3.61400769600297        2.88575377934904       -0.74734637655166
H           -2.15797365808531        3.48283545376661        0.87954634707518
H           -0.09924731102838        3.18855472969517        2.13027227935472
C            1.99471775607204        0.26138451268223       -0.25970597215901
C            2.74933082096243        1.36332850598745       -0.70512745934346
N            3.38527993410491        2.23429854681479       -1.10363956338317
C            2.57036863854520       -1.00487569099125       -0.38145131221864
C            2.03792104801689       -2.20877682112338        0.16681443230341
C            0.77138329512471       -2.46110079697014        0.59071361342485
H            0.57433182030783       -3.45932829020901        0.96278661384574
H            2.73975985534050       -3.03196921166537        0.20969667724039
N            3.77296376276512       -1.10761020880528       -0.99033350934137
H            4.26743224436351       -1.98152669304160       -0.99405233064992
H            4.24153160696228       -0.28248772487849       -1.32510359787536
