26
 energy: -47.971320453589 gnorm: 0.000966400551 xtb: 6.6.1 (8d0f1dd)
N           -5.37457667706058        0.13624548925760       -0.17155652993478
C           -4.23259106696111        0.21258384941312       -0.09161972147350
C           -2.82566133434389        0.32350200589535        0.00825155047720
C           -2.34927315107924        1.45204568261971        0.74992493253240
C           -1.10456526626476        1.97005980632112        0.75439421655896
C            0.04346347532253        1.49880550855833        0.01527959929298
N            0.83993470321516        2.37877995632798       -0.47179733083608
C            2.06895039886671        2.29386256740274       -0.97114649771786
C            3.04947281378645        1.45022695655044       -0.54278470309914
C            2.82604411737037        0.26715992145606        0.22048212186873
N            3.91221374683550       -0.32414301493918        0.76207658738236
H            4.82751992231347        0.05508028702549        0.59723528904071
H            3.83276401783779       -1.22923898184508        1.19653277000893
C            1.58626055301628       -0.38419698329228        0.32799431596279
C            1.59034414164708       -1.61747766497460        1.01408551205230
N            1.64012636880714       -2.58472708803693        1.63325145861190
C            0.28896146977771        0.06295433058497       -0.08950982892595
C           -0.67894212282254       -0.85730793253718       -0.48035141351266
C           -0.21527245979959       -2.11809432492288       -0.93170110000141
N            0.14212676154679       -3.11612749922169       -1.36999079050863
C           -2.07755986341830       -0.67444754587150       -0.56461862962660
H           -2.62056680729902       -1.47529086847503       -1.05388625478478
H            4.07519634942071        1.66803746781287       -0.80483302893592
H            2.30817438185869        3.08784433688055       -1.66802375912957
H           -0.92375465005698        2.87869582499990        1.31315425946264
H           -3.11023350101597        1.97485038101019        1.31674796943592
