23
 energy: -38.422694757089 gnorm: 0.000635519382 xtb: 6.6.1 (8d0f1dd)
N            3.36643864699684        1.55766670888911        0.88042258594192
C            2.45198496487367        0.74722670055934        0.27741941203864
C            2.96039035972226       -0.37874221119976       -0.41065713094141
C            2.19172873042220       -1.34246933289424       -1.02148598232355
N            0.94449006395503       -1.66138493594151       -0.75925232536656
C           -0.00379581294017       -0.99023634183019       -0.15595398259089
C           -1.01300312939374       -1.69819867139433        0.53174498238216
C           -2.24013953696905       -1.21662076519356        0.93956894614285
N           -2.91197678886815       -0.14862539774057        0.54424834492333
C           -2.38347817744519        0.77548650954916       -0.26026472713916
N           -1.12544509405922        1.17524509531157       -0.33728048410627
C           -0.03323134622616        0.47826793830177       -0.09568553066268
C            1.12380298918501        1.16853820360176        0.28430140400604
H            0.93738697957305        2.16798753961567        0.65897580789377
N           -3.27872718733783        1.50054965250321       -0.96711356009187
H           -4.25409228840021        1.36810946711985       -0.76837893764406
H           -2.96753879881607        2.32799631859404       -1.44274823803027
H           -2.82264309923333       -1.84858656213263        1.60455936480302
H           -0.75915431792578       -2.71619294674175        0.79566453320896
H            2.67602712087224       -2.02624725061379       -1.71228149927949
H            4.03498346435683       -0.44038042482825       -0.51874221514331
H            3.08532036148529        2.46493526586140        1.20809097799257
H            4.34645697117209        1.39532722950320        0.73304620188662
