25
 energy: -42.641477965437 gnorm: 0.000566516336 xtb: 6.6.1 (8d0f1dd)
N            3.95568496836601        1.33836618646946        0.75302159971514
C            2.96989174640403        0.81803068675648        0.46540616117363
C            1.75751743841359        0.19044502591223        0.12499484085849
C            0.60726094020029        0.91096090721767        0.34347737416170
N            0.64008253488839        2.11185167130293        0.97201056528496
H            1.52194891908143        2.51599315016268        1.24121186286790
H           -0.18286245991452        2.68674834520440        0.99159122314523
C           -0.71727362846194        0.43463948184450       -0.06976920507725
C           -1.57337953696954        1.25544561074573       -0.74576506790341
N           -2.79781258236802        0.95815288459686       -1.24044682420816
C           -3.56399191840723        0.05425475734699       -0.73666458360421
N           -3.45065297181583       -0.46633102006341        0.50043306340014
C           -2.36562331695905       -0.77630828849531        1.07271878031811
C           -1.06485443309407       -0.90683025455085        0.37559174865548
C           -0.32627698375838       -2.02581070217994        0.29087728325364
C            0.95578564773431       -2.13592368738072       -0.31897088658272
C            1.88081196836617       -1.14518139286611       -0.44647322923295
N            3.06732055899542       -1.39211852071862       -1.10020398416365
H            3.84640403538534       -0.78367568779215       -0.90616615869064
H            3.30114028514457       -2.35542988453743       -1.27326568680463
H            1.23902689576808       -3.12161022094560       -0.66433663069222
H           -0.76217503362471       -2.94523949292654        0.66127013047956
H           -2.38515488848105       -0.90448130018740        2.15225079219674
H           -4.49646265755862       -0.15120807820342       -1.24683687229617
H           -1.22229780703418        2.23416600758682       -1.05683527175577
