23
 energy: -39.211618170922 gnorm: 0.000751312510 xtb: 6.6.1 (8d0f1dd)
N           -4.67709239791229       -0.57264882471935       -0.03640088251744
C           -3.53189283699030       -0.48224647751061        0.03194649367746
C           -2.13328485742318       -0.35207373759711        0.11007962935391
C           -1.43585559622224       -1.50505409281986        0.50298116178880
C           -0.09141953521050       -1.76337723256748        0.49054706015380
C            0.97063186826868       -0.89030220194564        0.16245248588363
C            0.85539898214510        0.55470430905754        0.28851482321891
N            1.90954913369606        1.20693685341637        0.80526352384878
C            3.17117144399485        1.07932019616935        0.61592920526069
N            3.81822913076462        0.38358211517131       -0.32355037750700
C            3.31665799974074       -0.75108903156488       -0.75405361566182
C            2.15094643234727       -1.42028647451752       -0.36985494515129
H            2.10164168172690       -2.46792902120220       -0.64199850417664
H            3.97756694762459       -1.28093582017552       -1.43463321995523
H            3.80916048576217        1.67343650721964        1.26478202967439
C           -0.26253240676430        1.31131565197524       -0.00110063547963
C           -1.59533345782181        0.92254465445126       -0.19900391940106
N           -2.45644829204715        1.87553225780546       -0.61909038057922
H           -2.13692958999880        2.81549865791884       -0.77058483034408
H           -3.44226018967623        1.68065525435643       -0.67296211285022
H           -0.07885408592128        2.37899972671166       -0.03809854744041
H            0.20106402306008       -2.78633847066856        0.69348862123223
H           -2.07647280574326       -2.33950157676409        0.76618118687124
