19
 energy: -36.326044697318 gnorm: 0.000781677467 xtb: 6.6.1 (8d0f1dd)
N           -1.86375192246487       -3.01114421120589       -1.06621640022474
C           -1.63640208479129       -1.93703521217653       -0.73200186604320
C           -1.34440156626505       -0.62305000101156       -0.30739820985311
C           -2.34386055095163        0.33867806317281       -0.41072613875675
N           -2.40423934369793        1.51890880774599        0.18804763850188
C           -1.38496386273350        2.12074115720666        0.74237726856723
N           -0.11922244097158        2.02505500172573        0.40290164593880
C            0.49572862806301        1.00415786575133       -0.11006948409117
N            1.57445908185397        1.14822174112141       -0.87390174576883
C            2.64609141336783        0.43684218909431       -0.84829087825990
N            3.06309370956443       -0.37503463971339        0.12565335356001
C            2.25374996383198       -1.12774227830688        0.81467891861911
C            0.86797986093521       -1.32082178134786        0.61809270581986
C            0.00941570833931       -0.37601065591513        0.09859753604965
H            0.43819258504681       -2.24807211957010        0.97624457560930
H            2.74757158159014       -1.76162095647081        1.54477063123382
H            3.34937093273859        0.58586540106911       -1.66114456062182
H           -1.62027325328702        2.89687275172529        1.46275440991686
H           -3.26333390056686        0.05369135500730       -0.91238974229906
