23
 energy: -39.207269503862 gnorm: 0.000886186454 xtb: 6.6.1 (8d0f1dd)
N           -0.59345845499817       -3.53536518867936       -1.26074185929557
C           -0.11031515833311       -2.56495975883910       -0.87993240629029
C            0.48068268660031       -1.37300290918301       -0.41763475065057
C            1.84695914895709       -1.29740507988611       -0.43369227972076
N            2.64999430241705       -0.37050920966744        0.09380313729986
C            2.33401986812368        0.87781908324021        0.29531233786738
C            1.15760932929436        1.56119070275455       -0.19030965403362
C           -0.09183984596516        1.04471856725077       -0.28972176594650
C           -1.15273308210086        1.86513605760559       -0.85748822037481
C           -2.45225785977976        1.87003011486442       -0.49936615672532
N           -3.04204867455629        1.27018299385388        0.56374242556264
C           -2.65411519324923        0.16052727799696        1.07766865415615
C           -1.60972647241514       -0.70708311512021        0.63731866704235
C           -0.45040430965285       -0.33590599296162        0.02645706147362
H           -1.72413315386948       -1.75397913404578        0.89134628667940
H           -3.25107736637449       -0.18695432993574        1.91731590974417
H           -3.13408064100480        2.52657397925030       -1.02878598488624
H           -0.83632596799814        2.54571341066808       -1.63849461739603
H            1.28320109352118        2.61327749054521       -0.41579106784306
N            3.25399857318286        1.62880581785388        0.93353551842317
H            3.13204261766089        2.61702531542775        1.05420160694525
H            4.10119926696586        1.18659700112161        1.24455364888536
H            2.39121519597353       -2.15257642001437       -0.82383833041651
