25
 energy: -42.650690200238 gnorm: 0.000578208494 xtb: 6.6.1 (8d0f1dd)
N           -3.98446811263610       -1.38166501782681       -1.95201756335243
C           -3.23547980923004       -0.78274334055396       -1.32081284103077
C           -2.29768466524705       -0.06559598108163       -0.54897808171092
C           -1.15713271445253       -0.80374002469207       -0.06847959405381
C            0.02311327952849       -0.25636101456635        0.30369608912637
C            1.14077950402866       -1.10320361316084        0.79879329573130
N            2.32412999216919       -1.11939911352574        0.31052799002423
C            2.87322772169585       -0.23839592803496       -0.56486371343920
N            3.86307035900289       -0.79196590684284       -1.34187372502672
H            4.54862246066050       -0.16712906792481       -1.73129728655395
H            4.20416187002523       -1.68850756319020       -1.03634141800492
C            2.60782168413597        1.10766234596014       -0.60522570740937
C            1.51304618316166        1.73960225155072        0.02899449857784
C            0.34323844535305        1.15271300850863        0.38587252793094
C           -0.73948791610363        1.87060496945693        1.09283015809050
N           -1.94686617778020        1.93475646011346        0.72763598680388
C           -2.55068632384352        1.24879174352166       -0.26077858129879
H           -3.41169627524345        1.74611576437127       -0.68803639695702
H           -0.48704167790607        2.37041747892914        2.02468585995577
H            1.58003480306333        2.81363460256289        0.15302294156807
H            3.30589897412099        1.74058513111385       -1.13532737779730
N            0.86525658802742       -1.88212077669532        1.87009351749748
H            1.58904315504012       -2.48356332205935        2.22377623391457
H           -0.08828358320275       -2.06324607147814        2.12811533948504
H           -1.24291971926799       -1.88355991855532       -0.09434939607241
