26
 energy: -47.187980953508 gnorm: 0.000388379803 xtb: 6.6.1 (8d0f1dd)
N            1.97960894873841        3.03076288479178        1.45511652893206
C            2.00076062767181        1.97763602833803        0.99817837946840
C            2.05344887373065        0.67902258396389        0.44611360729769
C            0.87586511845611        0.25102607791385       -0.19701211460068
N           -0.02234812732229        1.15335566265688       -0.53842067343411
C           -1.32731260543614        1.07908829997583       -0.59022947088628
N           -1.95114899162277        2.08446581471020       -1.23574516213563
H           -2.94423894879958        2.20916256737002       -1.13392998053398
H           -1.38986666009951        2.85398379043263       -1.55881973908935
C           -2.13162718317519        0.09186604935940        0.06638342729816
C           -3.45558520249975        0.44377092172683        0.35520003728631
N           -4.54539323206801        0.73780447901063        0.58708836675938
C           -1.72208443972637       -1.23281725181903        0.31582446214615
C           -0.49911043640894       -1.80575012443171       -0.09585980821425
C            0.67789839834834       -1.17933408107586       -0.44274044917481
N            1.63310741683910       -1.88194066712724       -1.06231731987930
C            2.91225262254391       -1.87090051937487       -0.92375741869844
C            3.66318935057892       -1.19339155334734        0.06073710234574
C            3.24081151596265       -0.04438035102687        0.67810954915422
H            3.94212459615653        0.44355150658600        1.34559945792824
H            4.66716061785681       -1.54270259311390        0.25219661295947
H            3.44653991501529       -2.50248392248743       -1.62756065861752
H           -0.46840310275919       -2.88826439658119       -0.11219914787786
N           -2.61909881492611       -2.06636883160683        0.88992579726995
H           -3.54749390086788       -1.74178982695288        1.10119308201011
H           -2.41025348148843       -3.04327256479247        0.98817947148699
