27
 energy: -46.877589706066 gnorm: 0.000633012121 xtb: 6.6.1 (8d0f1dd)
N           -5.35871629057894       -0.27022705405690       -1.16683254941658
C           -4.31292575931445       -0.17015924806711       -0.70390615951704
C           -3.03401455697855       -0.02397629429335       -0.12776890246734
C           -2.95664515569804        0.83386770903227        1.06348241676335
N           -1.96766081765259        1.50867253970070        1.47372880543576
C           -0.74770808569345        1.56274963293836        0.85248993225040
C           -0.08473833265278        0.57461124294402        0.21419491561296
C            1.25057275399691        0.86561689562991       -0.33430995737349
N            1.35427253321809        2.03909318323249       -1.00201461924537
H            0.54912139927802        2.62660741710337       -1.12107775839213
H            2.22199968367236        2.29949219507910       -1.43997470447902
C            2.34966587765661        0.05700943721703       -0.17749356466839
C            3.57634493506504        0.54190000828689       -0.66773997147875
N            4.57897177128383        0.93428006653107       -1.07474604518984
C            2.40062299563465       -1.25600985076964        0.44757211845925
C            1.36169555146492       -2.14032051258658        0.45967059745105
C            0.04211184452531       -1.92102165717469       -0.00237416741757
C           -0.63999919527406       -0.74910511942853       -0.09295529374805
C           -2.00015039810367       -0.76061171301851       -0.59924833358690
H           -2.20768290633145       -1.46534997233636       -1.39965062036473
H           -0.52079442578055       -2.82031607999984       -0.22314361047958
H            1.57932283832258       -3.14088527444885        0.81034462979631
N            3.61474960752942       -1.61349999011019        0.97339599963732
H            4.42905619866920       -1.08678383116095        0.70271973503049
H            3.76317047430946       -2.58448929823939        1.19026514300890
H           -0.24643265525289        2.50560482530610        1.04068474377399
H           -3.86664877511470        0.90663457699105        1.65139445390414
