28
 energy: -46.613756229945 gnorm: 0.000602407487 xtb: 6.6.1 (8d0f1dd)
N           -1.87071305510580       -3.95430886997738        0.04833603959433
C           -1.62257938696067       -2.83222285104928        0.08282677059907
C           -1.38032746369162       -1.44309554390422        0.14937469971609
C           -0.10147476485505       -0.99835070792966       -0.18856754940462
C            0.78424021930038       -1.95827064776725       -0.76950240840893
C            2.14525147831638       -2.04105996860247       -0.73106937096764
C            3.06855120072108       -1.21563943095600       -0.07924635671117
C            2.82135933839951        0.04113661375991        0.43665565789258
N            3.83317778562527        0.70018665135233        1.06518412675728
H            4.76189253403938        0.31836822513630        1.03563687232714
H            3.73950337195451        1.68030549072685        1.26513716918818
C            1.60288397003309        0.76630667619512        0.29985647980089
C            0.33298219848603        0.37143654729106       -0.02182992795896
C           -0.59479848425583        1.46626244628315       -0.31761893604059
C            0.00709692862540        2.55729148876153       -0.96576409500573
N            0.46784797265523        3.46460721086133       -1.50719019247300
C           -1.93488533526439        1.60349896382512       -0.00012923825719
N           -2.55392944042361        2.78769333815907       -0.24559370799525
H           -2.07292423225096        3.50424731371076       -0.76244127166332
H           -3.54739650578437        2.86593907873779       -0.12623394172945
C           -2.74072990418689        0.60608031571205        0.63476599225033
C           -2.48852511779089       -0.72178810611023        0.67677837463023
H           -3.25697164511965       -1.35051956119232        1.11230849814771
H           -3.68368624788175        0.95679378144228        1.03280028537074
H            1.71790134492749        1.82884829262964        0.48841519902386
H            4.08490455955084       -1.58101227154870       -0.01182475358138
H            2.57335016798468       -2.90927590858181       -1.21709801853549
H            0.27796357502945       -2.77601110655451       -1.26864949535238
