24
 energy: -42.956244317350 gnorm: 0.000839655005 xtb: 6.6.1 (8d0f1dd)
N            4.48473219057295        0.04908586792586        0.03929546025926
C            3.33294357821107        0.02156175948465        0.00647372925737
C            1.93671837339276       -0.01560505661941       -0.03402763127468
C            1.20295007797045        1.14593213184482        0.33537625013059
N           -0.03740505150383        1.40699065214854       -0.02549872808893
C           -1.00989235427850        0.59446900392257       -0.36297452552908
N           -1.97399800705476        1.01374017504421       -1.14716451574590
C           -3.24558679544006        0.71911289263634       -1.11475068522505
C           -3.93540562720708        0.10180637680210       -0.07511426822673
C           -3.36250806763320       -0.73374811091047        0.87898160854093
C           -2.07162611920685       -1.23118604465490        0.91553981952929
C           -0.98316047633140       -0.79361496861151        0.14931543792859
N            0.05626073288086       -1.55630846376603       -0.08612537054717
C            1.29287319625103       -1.22035616141699       -0.41703342028514
N            2.01166157919178       -2.17995131069695       -1.03971892130671
H            1.59243426191371       -3.08484718249028       -1.16180652369026
H            3.00736405151707       -2.07742006780753       -1.13332598993424
H           -1.86068412313434       -2.03520165874852        1.60782131119470
H           -4.04614482852403       -1.15582902076627        1.60597319503543
H           -5.00985070298357        0.21783431177153       -0.05492838660070
H           -3.80848067623109        1.10115390706544       -1.96002342132874
N            1.83702064242873        2.12832287129605        1.01289589188998
H            2.83541710945129        2.08891867424126        1.12875870683680
H            1.36254675764826        3.00798998480595        1.11936480718051
