24
 energy: -42.954797072703 gnorm: 0.000384851439 xtb: 6.6.1 (8d0f1dd)
N            4.83708010856749        0.65239627160390        0.57462570470759
C            3.69535228102056        0.53877794362118        0.48273818946492
C            2.31397672454421        0.35541084227323        0.34139666785208
C            1.41954551511696        1.17802279637881        1.01182014710889
N            0.14508371286926        1.33449501185433        0.74475626056036
C           -0.71747423302494        0.54934782836087        0.15964735536437
N           -1.79290906727853        1.05882111022812       -0.40421854173251
C           -3.00322896238185        0.55431355857099       -0.41675856418580
C           -3.47834064958782       -0.49303424909332        0.42505708209932
C           -2.71303285701574       -1.50403488262016        0.94647180640748
C           -1.35808217381355       -1.77887050669487        0.72131770914868
C           -0.43876822407119       -0.90919266571517        0.16793222450277
N            0.69812776942381       -1.31548745868598       -0.37890159623707
C            1.85250890059570       -0.71960637402843       -0.50350406415549
N            2.71062093770152       -1.23180786281633       -1.41547023690030
H            2.45177845538493       -2.08082624469395       -1.88733272897938
H            3.67975809372054       -0.96380597661479       -1.38641589449919
H           -0.99734326519430       -2.76083119964119        0.99539241757331
H           -3.24821981165130       -2.25695942924281        1.51292046668079
H           -4.54674473661091       -0.52692172831675        0.59025937142188
N           -3.88497201517472        1.15985409028410       -1.24485997849448
H           -3.58041311762069        1.97885677027196       -1.74152051035648
H           -4.86805725265107        0.97427896854208       -1.16414402842568
H            1.80390185975469        1.86157976536817        1.76197518197073
