26
 energy: -41.563980490053 gnorm: 0.000425951471 xtb: 6.6.1 (8d0f1dd)
N           -4.17672324779658       -0.32120602186113       -0.91542494922017
C           -2.93352531830368       -0.09131930872291       -0.38917453342983
N           -2.27898223571910        0.90645950473980       -0.86135163599395
C           -1.06008863505041        1.32161479165198       -0.40078831712379
C           -0.04334168940341        0.59857029879190        0.11207800981699
C            1.19524569014143        1.28968607332111        0.51876068278343
C            2.44166101858747        0.83970435663440        0.24933481033471
C            2.75980619850830       -0.39672282194000       -0.42877040649615
N            2.11432273467492       -1.51313238591966       -0.37986269063453
C            0.93371203918493       -1.69431815380248        0.26510720368617
C           -0.09699030179696       -0.83370140459376        0.43336323723514
C           -1.32401537163084       -1.30458210935405        1.06791508793433
C           -2.57189047607545       -0.96099386429986        0.73388949551929
H           -3.40736165530114       -1.39247101569382        1.27143939705618
H           -1.18760784356392       -2.01960139146754        1.87354398403106
H            0.78612728245394       -2.72937986517249        0.56024583285411
N            3.97630817169798       -0.42840502799113       -1.06375423153473
H            4.36167972149815        0.44032973925996       -1.39185477262326
H            4.14050507682084       -1.24059498650440       -1.63546874326893
H            3.28498598627696        1.46437557726170        0.51915362410438
N            1.01186314067715        2.50564506559982        1.13102279233023
H            1.79197308806660        2.89760521921892        1.63270096737830
H            0.09872534859672        2.69831642971852        1.50645224347645
H           -0.89743267255752        2.37604233611270       -0.60019648236253
H           -4.38079041209394        0.16181835470829       -1.77482344340399
H           -4.58692268739120       -1.23145065149638       -0.79621405254873
