25
 energy: -47.469817239453 gnorm: 0.000730455413 xtb: 6.6.1 (8d0f1dd)
N            2.97493062886016        2.45719328178278       -0.72819939047711
C            2.39732053350183        1.52272008455418       -0.39029516451088
C            1.73107754322846        0.34037333516155       -0.00781564868385
C            2.39938692220480       -0.88928495422106       -0.29802917702129
C            2.09987494880381       -2.12448628403307        0.29000840338807
C            0.99623709403324       -2.39825643128952        1.08361787273054
N           -0.15214156252347       -1.77989512888473        1.08126136410246
C           -0.47631235321075       -0.59930824979190        0.60647863335871
C            0.47500567095194        0.52063970321566        0.58635186641341
N            0.14015811722749        1.68454486867976        1.11518907347950
C           -1.03069428160521        2.24433593806396        1.16807536025895
N           -2.06566674565904        2.05016320815918        0.37975010719245
C           -2.32429966646826        0.90529227916736       -0.24096359848418
C           -1.75441100541388       -0.37362593452066        0.06059671360440
C           -2.49483792411514       -1.50439700989579       -0.32762637991654
N           -3.13952872064066       -2.38965312779702       -0.67839018106741
N           -3.32383250840633        0.95689667100932       -1.13922882374291
H           -3.71405730291198        0.11070753231624       -1.51897973417083
H           -3.81127857270047        1.82937612597419       -1.25078829316459
H           -1.12033109324773        3.07984859528659        1.85428677843076
H            1.01157033509924       -3.29304333345724        1.69601185084584
H            2.82926676990663       -2.91188364947347        0.15901595671611
N            3.49098689452490       -0.81570063120791       -1.09094189322913
H            4.07572670410246       -1.62317586290258       -1.21487474926466
H            3.83303936425897        0.08019205000457       -1.39776872618786
