24
 energy: -47.762784407896 gnorm: 0.000885024358 xtb: 6.6.1 (8d0f1dd)
N           -4.93505856841350       -0.26066621800716        1.04051634517684
C           -3.83589277775323       -0.05120270467939        0.77826015656594
C           -2.49587559641908        0.17184796299225        0.42184581786562
C           -1.90137651393113       -0.69704451870451       -0.56144559169057
N           -0.61495159520853       -0.94631270509076       -0.61981554014626
C            0.41830545763913       -0.23218438101055       -0.24843112360876
C            0.26306963554999        1.25289287626626       -0.21517414684925
N            1.03223236228646        2.02496074763579       -0.96091358581976
C            2.28703843387722        1.78538607363613       -1.21657961875596
N            3.13793560294833        1.04887849853983       -0.53744479105717
C            2.85062291289442       -0.00368627686760        0.21265516832270
C            1.64280853373869       -0.77698776807541        0.14330359987521
C            1.69694366135193       -2.12343846509903        0.54329356712299
N            1.78038586539237       -3.21724390227242        0.88642107881520
N            3.85031174790816       -0.45409553411991        0.98797120594249
H            4.73807840838145        0.01610027660260        0.94002839933571
H            3.77667398842699       -1.34180508963026        1.45560140221234
H            2.72931484109832        2.38450055503245       -2.00559785101873
N           -0.66187153384943        1.72538317715716        0.56251655905543
C           -1.76904017243857        1.18996474418952        1.02295165795937
H           -2.18878848990008        1.69892163905239        1.88322330696658
N           -2.69974238370855       -1.40857434030960       -1.37807404346342
H           -2.28714400417361       -2.12708448518766       -1.94839104865757
H           -3.69511131809919       -1.40603864415060       -1.23202762614594
