25
 energy: -47.481488920768 gnorm: 0.000724539822 xtb: 6.6.1 (8d0f1dd)
N            1.70529474003864        3.62102254765347        1.14649675950236
C            1.70997065940539        2.50805371996261        0.86194589248251
C            1.72174067954657        1.14352300343231        0.50948347614338
C            2.89936631263889        0.43916240619312        0.78507336520569
N            3.30103944503416       -0.72454734895578        0.33515520014072
C            2.52202241336103       -1.54274074429645       -0.38471076252121
N            1.21679207151041       -1.70956707512833       -0.27145414572502
C            0.31181826388733       -0.84615799880699        0.10470777074748
N           -0.80056123667381       -1.31096632563854        0.63882451729881
C           -2.03413440105249       -0.91700806732506        0.54449434583912
N           -2.92387231856448       -1.44739244905519        1.40121152853587
H           -2.60852839753899       -2.14137092726942        2.05664865362890
H           -3.90909808611327       -1.28803134189730        1.27781331832993
C           -2.52128269822781        0.00722981648152       -0.45948093445317
C           -3.87793863616844       -0.09016193670740       -0.80903427924978
N           -4.99090509828490       -0.20655505349696       -1.07463602270864
C           -1.76356906824659        1.05280714428223       -0.95339612131394
C           -0.45332208339168        1.40108390033163       -0.61788310961367
C            0.51465551077588        0.60807089044550       -0.02553249389257
H           -0.14588314207893        2.40335432334420       -0.89073350713401
H           -2.28805341894814        1.74763555748625       -1.59890510805970
N            3.17348892737872       -2.38998116459967       -1.19870303013086
H            4.17739137182835       -2.40788280850913       -1.16707497892866
H            2.66513344969831       -3.12964078847653       -1.64918691267579
H            3.65640085028571        0.96395829946000        1.36089410535056
