22
 energy: -43.530317032103 gnorm: 0.000720702457 xtb: 6.6.1 (8d0f1dd)
N           -0.64844566012573       -3.63682822747228        1.15204339011118
C           -0.11128947302041       -2.65710162307146        0.88875531621908
C            0.54854613750027       -1.45313659678286        0.57177023068658
C            1.94025444461057       -1.37847495748571        0.74305686629013
N            2.78859191043863       -0.52120630699915        0.24399342441925
C            2.47773870792169        0.61799695535213       -0.39199527911602
N            1.45463476324175        1.42072356936983       -0.14297544517355
C            0.31288514452017        1.01443133335165        0.35121600296540
N           -0.44248125273612        1.77392946439397        1.10411777067017
C           -1.73771585501984        1.75708011540151        1.28708308830564
N           -2.67601603841757        1.32814152767184        0.47557571465588
C           -2.37939862333951        0.43080539455377       -0.47618495558088
N           -1.40605689447278       -0.46648989750662       -0.41451376713122
C           -0.22616045000368       -0.36109648458232        0.12784933648192
N           -3.25699319975169        0.31350403806169       -1.48858951462904
H           -3.20727809264833       -0.49666814391715       -2.08177085969818
H           -4.12049828505538        0.82299992954724       -1.41638109939796
H           -2.08393112874839        2.28495719977317        2.16916678622212
N            3.40527400167586        1.06447499067131       -1.25470033987633
H            4.28375684407205        0.57942699905843       -1.30767128914046
H            3.31630393260760        1.99415375444528       -1.62518735617353
H            2.41469081854997       -2.20600413133359        1.26310250358808
