22
 energy: -34.693926721168 gnorm: 0.000750545060 xtb: 6.6.1 (8d0f1dd)
N           -3.16291172444359       -1.13483407517649        0.93050047598467
C           -2.22928776372358       -0.43377341346916        0.25154961934492
N           -2.55496182467372        0.80285748368383       -0.04115665998277
C           -1.73377834670567        1.57880837285097       -0.76791508647978
N           -0.45916096442862        1.63072127306459       -0.80952776984068
C            0.45054343061786        0.78431281552376       -0.24724426855821
C            1.56368709300246        1.34589485669476        0.32264859046152
C            2.75857817636514        0.72338515107505        0.73240463968989
C            3.22583849997087       -0.50631320630137        0.37598249664330
C            2.56862182306885       -1.46343255632357       -0.43895664440823
C            1.25843506588631       -1.53262853394258       -0.77176343901210
C            0.19307346295760       -0.64329902993790       -0.37944225715550
C           -1.05794748364431       -1.15566889034590       -0.16323221786094
H           -1.16338629321623       -2.23367306529247       -0.20309044518385
H            0.93499819490351       -2.39533579410455       -1.34314923470575
H            3.19576741534811       -2.27726421730752       -0.78414329325757
H            4.22165356094298       -0.77612797382950        0.70233285738696
H            3.42233857313778        1.34526355267932        1.32118134615284
H            1.50388116719729        2.41659784894092        0.47324506501320
H           -2.25417397731927        2.33335155431741       -1.35388785309143
H           -4.01318099446254       -0.66732582531806        1.19047616278025
H           -3.04795974148124       -2.11254931857997        1.12139027067941
