19
 energy: -36.324026777398 gnorm: 0.000946374014 xtb: 6.6.1 (8d0f1dd)
N           -1.42569533707223       -2.89346692902332        1.32243766196189
C           -1.33428422855040       -1.86189474970408        0.82992392577967
C           -1.22811948947422       -0.58420862286013        0.23781386955671
C           -2.27932643424876        0.30197903858240        0.37577160674234
N           -2.47627261622655        1.44591571853342       -0.27624338189711
C           -1.53383964603051        2.13592143758126       -0.84698381049735
N           -0.25212287450515        2.13596489616502       -0.52146447160419
C            0.46945235901758        1.13327377404504       -0.14496240371503
C            1.65935436657990        1.26703032396098        0.63488752541072
C            2.68682735331759        0.36283316197392        0.66879525716194
N            2.98063357887598       -0.58422979194879       -0.23298640063558
C            2.12787327552442       -1.10415807684851       -1.05490140256082
N            0.81186409323352       -1.16765261920586       -0.88305035796625
C            0.05515405829553       -0.27310373250050       -0.35582791280586
H            2.52207294818255       -1.69275544815159       -1.87526008142829
H            3.46554443336291        0.49704323244856        1.41138993116595
H            1.69139858265915        2.12567891087122        1.29257498028339
H           -1.84510766366640        2.91142897792925       -1.53793484194482
H           -3.12845492847464       -0.01477408124718        0.97253946189130
