25
 energy: -42.657171164569 gnorm: 0.000441873231 xtb: 6.6.1 (8d0f1dd)
N           -5.39591449965722        0.00097559925718       -0.00467011091844
C           -4.24617327312894        0.00102076573414       -0.00312545085190
C           -2.84407645037136        0.00022399783237       -0.00149566789303
C           -2.14363172005167        0.79645833759615        0.92344455874803
N           -0.90205044820422        1.16133318619265        0.84233411318208
C            0.14401377223334        0.72342449257295        0.16422847010013
C            1.18683208493537        1.57160748509051       -0.14282281603373
C            2.53726477939186        1.22447053199554       -0.31064280531049
C            3.12798394911712       -0.00028448729477        0.00444986310567
C            2.53643771297361       -1.22495005234248        0.31832676887635
C            1.18629374356465       -1.57192153546407        0.14774811876815
C            0.14419584186580       -0.72359976299150       -0.16134697957952
N           -0.90066289825621       -1.16133003946711       -0.84144665947121
C           -2.14201579238142       -0.79618087063864       -0.92502915273779
H           -2.68806173607334       -1.24427954547999       -1.75005906942954
H            0.95609098284175       -2.63006265365928        0.14744439586218
N            3.37020276253644       -2.22387120930621        0.73234872395445
H            4.36320752677861       -2.11279315171777        0.62435322987088
H            3.01733291658614       -3.16423069664177        0.76593025470591
H            4.21242308840927       -0.00036002740403        0.00557505729182
N            3.37201131760573        2.22328888518998       -0.72293016277571
H            4.36477112885062        2.11208912546538       -0.61285415828654
H            3.01933464071974        3.16369575333125       -0.75721093845475
H            0.95675691683297        2.62977581516440       -0.14298948237615
H           -2.69119163261862        1.24458420638530        1.74755105975441
