25
 energy: -42.664221170127 gnorm: 0.001000300243 xtb: 6.6.1 (8d0f1dd)
N           -0.71810439946435       -3.66274426755580        0.30364822235112
C           -0.68928169987642       -2.51256683740000        0.23356144856123
C           -0.70412373001167       -1.11284857351126        0.15854664553349
C            0.53217854037109       -0.45426786586323       -0.05274578509028
C            0.71711255943401        0.94557404186206        0.33915273791258
N            1.80888654751645        1.26279561672581        1.03145573244722
C            3.05018120401337        0.93036308827916        0.92564979501094
C            3.63419496578593        0.17829241586593       -0.10507521233753
C            2.92230317222437       -0.76289826977999       -0.81923407731430
C            1.58422699130894       -1.12971620874615       -0.66742810891023
H            1.30144005347586       -2.05748748261385       -1.15124799174263
H            3.49317229225677       -1.38131004897262       -1.50187705403992
H            4.70462850170176        0.23534096895736       -0.23752245070969
H            3.68822019174288        1.31788246881341        1.71487530881913
C           -0.20349011816384        1.93935627163288        0.07832337702476
C           -1.54569405971220        1.76739427412992       -0.31561966514996
N           -2.33107803505488        0.72282989713053       -0.10597719858404
C           -1.97637622931071       -0.49388856585027        0.27959924801098
N           -3.00662078767821       -1.24683521291973        0.72566772451879
H           -2.88291762671070       -2.23199025158110        0.88590871101803
H           -3.93275615118259       -0.86141041921130        0.66827628534492
N           -2.18510682288650        2.82983930108086       -0.85526321584296
H           -1.71819524124509        3.71042666627201       -0.96941475762710
H           -3.17152564867066        2.75884529913875       -1.03295431551402
H            0.14345439484244        2.95650092220355        0.20409023811895
