31
 energy: -59.389503005105 gnorm: 0.000947536168 xtb: 6.6.1 (8d0f1dd)
N            0.71943649903650        4.14108582879291        1.77375859309793
C            1.04716156938808        3.16979607259356        1.25480174415131
C            1.44562566561460        1.98039475541244        0.61212007759639
C            2.79728278546479        1.72976677902529        0.56309370584039
N            3.45717796114533        0.82494863140820       -0.14361214487853
C            2.97448101151229       -0.28573216748019       -0.63887811474120
C            1.72312640079985       -0.91686802230474       -0.27106449768695
C            1.68632262868952       -2.30786224143470       -0.50068852727863
N            1.71674152235836       -3.41747287246324       -0.80094148555168
C            0.55149601039280       -0.28919681876066        0.12910418365377
C           -0.49809412563066       -1.11594782094263        0.65619586433699
C           -0.05819365228131       -2.19808040160402        1.44648566647787
N            0.25405019497957       -3.04000387664634        2.16481664757620
C           -1.88006925247155       -1.00274277438165        0.48597178394248
C           -2.53486674660130       -0.01903827053431       -0.32212623968106
C           -3.85998974470724       -0.30867333364930       -0.69495798650958
N           -4.94174875169021       -0.54147172694037       -1.01079608546836
C           -2.04010521813554        1.23776084639062       -0.68112816164241
C           -0.78817481011837        1.77747571616499       -0.27562164051737
C            0.36527911777989        1.15274952420467        0.10016985637337
H           -0.74034108576208        2.85926667254920       -0.32650740516173
N           -2.83331698371738        2.06321131098113       -1.39710570818277
H           -3.77147341761857        1.78868200113022       -1.63608367275992
H           -2.54468250852736        3.00770425840997       -1.58039961208700
N           -2.67360370767801       -1.93176944136529        1.06131401484752
H           -2.26249058023518       -2.70980930663079        1.55032790349105
H           -3.65971087847007       -1.94858306138435        0.86279491401716
N            3.77500327194788       -0.94145258013199       -1.49870702836851
H            3.56392171313333       -1.88228285131467       -1.78683710749249
H            4.69472246089817       -0.56667915888088       -1.65963437421511
H            3.45147797054998        2.43158170706617        1.07112227537482
