26
 energy: -47.974585175922 gnorm: 0.000792041870 xtb: 6.6.1 (8d0f1dd)
N            5.93232820739634        0.26423245845984       -0.10614419742100
C            4.78635905624013        0.23862939094134       -0.04125659493587
C            3.38103902504777        0.22097015086649        0.02672562698527
C            2.73105224865456        1.12608867536055        0.87911875306018
N            1.49543490342749        1.48444024206083        0.75687261089526
C            0.43137710939984        1.05727832307826        0.12949325564462
C           -0.49345184296185        2.02659248508391       -0.31291353495595
C           -1.83933408875117        1.87760283330051       -0.50665449833533
C           -2.66852010828417        0.78795596634355       -0.19935575533766
C           -4.05273071866708        1.02993814413458       -0.31649336543476
N           -5.18382655686179        1.21122032075420       -0.41064711680077
C           -2.29635540981207       -0.50852853017263        0.22598501123986
N           -3.27805424955844       -1.34389856726222        0.61613810001081
H           -3.07241474474194       -2.30403645235404        0.83946802915961
H           -4.23933965498318       -1.04722472079129        0.56731573683920
C           -0.97443371586531       -1.03711000995901        0.16782750578701
C           -0.88481620397461       -2.43587949191876        0.33441966971195
N           -0.84198202700939       -3.57467655028034        0.48573173867537
C            0.24070817747932       -0.37411642652269       -0.05920000988815
C            1.34144341784078       -1.10859168026424       -0.56646193124005
C            2.67804818051477       -0.79169100989134       -0.65117415497387
H            3.29396083424330       -1.48440386679027       -1.21205203055371
H            1.06339249202267       -2.04863421531800       -1.02865124269200
H           -2.37161318917129        2.75539661048081       -0.85410161642473
H           -0.07709092479251        3.01548665012132       -0.44623029886490
H            3.29232266247143        1.63531752473541        1.65451183594841
