24
 energy: -38.118017319945 gnorm: 0.000695342738 xtb: 6.6.1 (8d0f1dd)
N            4.05027830541483        0.39129023097324        0.87124613031420
C            2.86778146593806        0.02646351430868        0.25894517797006
N            2.43804281491891        0.93245105516837       -0.67019789851858
C            1.24051729697952        1.17650909266022       -0.99788933764028
C            0.00259296085058        0.65127304515573       -0.39879186083751
C           -1.01583241832329        1.47488270366112       -0.08611987906992
N           -2.20790472933173        1.16828806111992        0.50953352901900
C           -2.84384834936619        0.06966775763707        0.32060640443653
C           -2.49565420811711       -1.02426783157305       -0.59447664136580
C           -1.25329942103833       -1.41527902512928       -0.89111231633920
C           -0.02528960966448       -0.81050334412545       -0.37475814624222
C            1.02042654896087       -1.60195165638438       -0.02239277385910
C            2.29519187846897       -1.19664409377012        0.45864354492546
H            2.87631343981991       -1.94339961917074        0.98477156857593
H            0.84746747550421       -2.67221215261613       -0.03807028962123
H           -1.12281098978317       -2.27085720874106       -1.54680223526180
H           -3.33840518181443       -1.56418239032466       -1.00886173732006
N           -4.05426605611027       -0.06495734195548        0.94228912565544
H           -4.45276931243102       -0.98229277875934        1.03880176054533
H           -4.25348293504611        0.60407380323651        1.66700464328461
H           -0.86888871115460        2.54505596103371       -0.18713929325828
H            1.11852204171799        1.84773527750884       -1.84561861822642
H            4.55173721769030        1.13251114485425        0.40821781941627
H            4.62286193541790       -0.35758117446803        1.22580497031805
