27
 energy: -46.899312860258 gnorm: 0.000735426090 xtb: 6.6.1 (8d0f1dd)
N           -5.27470294459308       -0.08013855814257       -0.41703123042185
C           -4.13934398164299        0.08082510199451       -0.31803712058861
C           -2.75129566328391        0.25676801190449       -0.18901736652564
C           -1.99547443109762       -0.84314535134282        0.30638994614014
C           -0.60611730961545       -0.93289083095363        0.34144714323007
C            0.43622253488427       -0.03256539401775        0.08673980378364
C            0.25360605886322        1.39988628396074       -0.00415194153702
C            1.26425190867959        2.31621556989501        0.35122559110901
C            2.59609961536512        2.11895912688855        0.65914769048693
N            3.39751208193415        1.11045492775878        0.40143129211330
C            3.01434977573364       -0.06142777613557       -0.09672281611179
C            1.71577319552244       -0.64054669197720       -0.09370552953830
C            1.71985363892545       -2.01893980806919       -0.36738182702399
N            1.78292924575534       -3.14481661197250       -0.60689553803927
N            4.04236949729464       -0.79978276154700       -0.56062992144993
H            3.91189431138267       -1.74914045958263       -0.86554797568611
H            4.96825874573740       -0.42156244117051       -0.46007933569719
H            3.11966009465240        2.95843046285408        1.10862333598405
H            0.92247856421045        3.33792221443729        0.46491838865364
C           -0.96024619907875        1.99266825960137       -0.41373070083049
C           -2.23391997601692        1.49670537402446       -0.55611854747816
H           -2.96717107979195        2.19410908656532       -0.94572213278179
H           -0.86398418836102        3.04444487556264       -0.65710226665104
H           -0.26409488844862       -1.92683241368896        0.61189343336809
N           -2.69223335055321       -1.92373144737233        0.72693953455033
H           -2.21099683540170       -2.77071557974394        0.97348530072255
H           -3.69279651166128       -1.94937133393318        0.62249996772049
