31
 energy: -59.399059957060 gnorm: 0.000733324037 xtb: 6.6.1 (8d0f1dd)
N           -5.60983792056113       -0.53757207582342        0.19547260050737
C           -4.46844123523541       -0.45117391221203        0.09029282228679
C           -3.06944940460814       -0.32565045785969       -0.03082367432556
C           -2.41302624568282       -1.42120837759587       -0.60384519658141
C           -1.06792868294249       -1.70221050626260       -0.67809986957466
C           -0.73505319649481       -2.96699840089497       -1.20993782318274
N           -0.46004172504743       -3.99432698573069       -1.64410816151147
C            0.04797248764408       -0.89999325523911       -0.24281757166503
C            1.19739060769966       -1.54170719472008        0.15186780184142
C            2.46456840864740       -1.02909392395766        0.54292782988297
N            3.25655306513009       -1.86896597583184        1.24366795391962
H            2.96083661699736       -2.81078222754871        1.42901375024537
H            4.20016251608513       -1.60225397118573        1.46911142773108
C            2.98355165910284        0.21722749018130        0.17050679684129
C            4.31454252056083        0.52520367119864        0.47932757121825
N            5.40767777047856        0.78737254016548        0.72871314707027
C            2.26319065368411        1.14055232129603       -0.66180031343170
N            0.97077542774350        1.28464499707665       -0.66803649594351
C           -0.04229560859230        0.55364495150518       -0.23528036824660
C           -1.16278605598835        1.29137803743238        0.18354103081701
C           -0.88523418008604        2.65993798012094        0.40070750827114
N           -0.69367911635438        3.77524004055173        0.60139675073672
C           -2.50555715473655        0.89305000925296        0.40887606440033
N           -3.32300809029623        1.78396970833899        1.00725619405745
H           -2.98673444152304        2.70590489549331        1.23171553427647
H           -4.30903257049546        1.59169789956095        1.07538011665384
N            2.96797824353978        1.98163515532183       -1.44144723738294
H            2.47204758469556        2.71574276760891       -1.91738841645075
H            3.96624964964359        2.04849696975202       -1.33856400567321
H            1.11899115629592       -2.61940017125689        0.24289484957970
H           -3.07165543620389       -2.20107779513776       -0.97216766846739
