24
 energy: -49.317801821439 gnorm: 0.000351692245 xtb: 6.6.1 (8d0f1dd)
N           -5.47315415033388       -0.64059907679274       -0.58027967466776
C           -4.33785919193173       -0.52845301282996       -0.47439149943957
C           -2.93571978212193       -0.37622013181600       -0.35543440876888
C           -2.12231410632879       -1.27696802409179       -1.02635139351341
N           -0.85772791986438       -1.50148738757629       -0.72528696763068
C            0.04283649291358       -0.73674165446094       -0.23356445869973
C           -0.04272790037744        0.73680002639413       -0.23337902306885
N            0.85779443991876        1.50168369285047       -0.72496445611696
C            2.12236142888573        1.27725674241658       -1.02616731694110
C            2.93581378257988        0.37633745128761       -0.35552719040165
C            4.33794874110639        0.52860216666288       -0.47447597584185
N            5.47321782519588        0.64085572049739       -0.58045639033787
C            2.47128006703734       -0.70256953458289        0.44140841792193
C            1.20898942069394       -1.24115849165300        0.46070319509926
C            0.96889583118891       -2.37565252076904        1.27346569099276
N            0.76618306285324       -3.29270720810368        1.92935783134918
H            3.22556679859658       -1.22444495556131        1.01925121672526
H            2.55184704575387        1.97337354037717       -1.73527486416922
C           -1.20882549163262        1.24105338159239        0.46109092013253
C           -0.96859901229932        2.37559245465185        1.27373250560393
N           -0.76643452499207        3.29191595063767        1.93084427102832
C           -2.47112760666323        0.70248099762371        0.44175119130033
H           -3.22538020802162        1.22422537658512        1.01974644658821
H           -2.55183642046321       -1.97284948753656       -1.73567389435997
