27
 energy: -51.716744897665 gnorm: 0.000474444210 xtb: 6.6.1 (8d0f1dd)
N           -5.31479868644688        0.05704202715502        0.48988790786985
C           -4.17789434885291        0.02732686747627        0.33812948200863
C           -2.77641491132025       -0.00095684354388        0.15376247352382
C           -2.22080412449100        1.11235320761571       -0.51243719169250
C           -0.90083829838986        1.45591789369668       -0.64336762642367
C           -0.63493411756934        2.67945522029697       -1.29834531462840
N           -0.40909181008015        3.67139126900281       -1.83115558033529
C            0.27715587805137        0.75819968925019       -0.16441448828904
C            1.37934334045969        1.48897670587308        0.18835599152592
C            2.66913457463383        1.00187801380947        0.60006311907488
N            3.26045404301384       -0.10566277649139        0.21559447202946
C            2.62897154431878       -1.02233907336948       -0.53875749873882
N            1.36662734469841       -1.36825000090514       -0.45903841281904
C            0.30240017727397       -0.69826497513269       -0.06764736073249
C           -0.77038112423665       -1.47107454868867        0.43531653414936
C           -0.41140617587114       -2.78578979682470        0.81826274775376
N           -0.13496407094848       -3.84961938344565        1.14642439055120
C           -2.10968381873262       -1.12791297832660        0.60998873711606
H           -2.72341383903845       -1.88317796140770        1.08907392826345
N            3.41181110415958       -1.75333184568629       -1.34547968365886
H            3.02370321190339       -2.56506832540756       -1.79367166638231
H            4.40796759686638       -1.64128512023770       -1.28050642352606
N            3.40516468170239        1.81898113249321        1.36971332777962
H            4.33260320832650        1.52990371013531        1.62813089471058
H            3.07022680058065        2.72620871808905        1.63944820060850
H            1.26647716296107        2.56596830042824        0.21928186474914
H           -2.93873312497227        1.81633501664201       -0.91989623268822
