27
 energy: -46.107214081005 gnorm: 0.000858619168 xtb: 6.6.1 (8d0f1dd)
N            0.01240042280123       -3.67564200193657       -0.41050561606851
C            0.31240978341109       -2.56378128455448       -0.34755205550173
C            0.70225643307983       -1.21978620155284       -0.25571397186234
C           -0.33051607189227       -0.28783278628420       -0.03375339691534
C           -0.10106391202187        1.13841217665306       -0.31516781668212
N            0.92679379986017        1.78988970468467        0.17899516081511
C            2.13981876121259        1.36710937385277        0.46281725663347
C            2.75353970120613        0.19771070662575       -0.02095636632290
C            2.09952808529220       -0.96086533442245       -0.41068154837982
N            2.85590960853476       -1.98633512954674       -0.89477480075008
H            3.85612808581193       -1.93520933230676       -0.81496816666394
H            2.43998551127754       -2.89823923219105       -0.98600003770733
H            3.83570238150462        0.16819978273082       -0.00983555702230
N            2.87697596671464        2.21607954310433        1.23080675985295
H            2.48609249457322        3.12739319966914        1.39858276901476
H            3.87666872762984        2.12070376483741        1.25160336309164
N           -0.93160900478992        1.80830260663603       -1.07692114675726
C           -2.22792774988261        1.71961631407408       -1.22133316010284
C           -3.12389825505603        1.06823630398918       -0.39755224861510
C           -2.79556313322145       -0.01073078517843        0.44409434914842
C           -1.56819410440429       -0.68560037926212        0.46557998136242
H           -1.58494155175271       -1.65594030541430        0.95087993895577
N           -3.79922810704283       -0.53085936564788        1.21076920341427
H           -4.74351212569777       -0.23174714920713        1.03941960004178
H           -3.67810989425430       -1.44466695217727        1.61231165120894
H           -4.17097113584648        1.32747712240007       -0.47784802139249
H           -2.61940864714301        2.32297336362961       -2.03448486419598
