21
 energy: -34.974177162205 gnorm: 0.000549648248 xtb: 6.6.1 (8d0f1dd)
N           -3.21279445129736       -1.18187822813836       -0.85102385579086
C           -2.20442914074766       -0.52727001211360       -0.22558538519261
N           -2.54284155777006        0.66404864145494        0.24003599496901
C           -1.75379943600477        1.61782719934783        0.70362889414835
C           -0.40233949410297        1.81282968037317        0.53106682106748
C            0.46144386699227        0.82973384324553        0.01489409584461
N            1.50128755811385        1.10135939627319       -0.70353490619674
C            2.61027655292487        0.45006340793418       -0.98657280886340
C            3.20882737346925       -0.49467696445091       -0.17518839438586
C            2.48226851378637       -1.11372775490811        0.85106830368131
N            1.18991610838254       -1.21713988890947        0.92467769124308
C            0.19818927952405       -0.61414948870707        0.29617750973549
C           -0.99163242332690       -1.22486404077525       -0.01235279042993
H           -1.01467624896612       -2.30553823477244       -0.05158802932747
H            3.01389158049424       -1.64628997237491        1.63373376677491
H            4.25207278234527       -0.73604452067980       -0.30665666714453
H            3.12474350522196        0.82376860827020       -1.86560514867733
H            0.01124281574184        2.79206516802764        0.72643244638190
H           -2.31757085043882        2.42156085547152        1.16951890497203
H           -3.12667055136779       -2.15503138098839       -1.08051885830498
H           -4.12140063147407       -0.75255354427978       -0.85178335260416
