32
 energy: -53.490194534452 gnorm: 0.000378317194 xtb: 6.6.1 (8d0f1dd)
N           -4.94483323939606       -1.25924830930948        0.54691879084827
C           -3.96529873502024       -0.77185498666814        0.18964041290146
C           -2.74801568427300       -0.20902053692971       -0.23284108733973
C           -2.80217590595868        0.60313310766662       -1.42501692301101
C           -1.97103367642340        1.61420135474008       -1.73795878880518
C           -0.85911273350471        2.06827449712154       -0.95265874181278
C           -0.09271110473587        1.32082090970107       -0.13436779759747
C            0.94626207294621        1.95355776647571        0.69466170132954
N            0.55734234386573        3.08691827456125        1.34912043265204
H           -0.42566659128913        3.28988413717920        1.40221508627915
H            1.14378742330974        3.45391663029319        2.07953929444779
C            2.22809760183030        1.51624420703669        0.76598181171276
C            2.80037087923807        0.39658996438449        0.08747557720303
N            4.16022476625030        0.42696456970348       -0.04810299981929
H            4.60201154785435       -0.29082688490338       -0.59840939234179
H            4.63466636497464        1.30931522509031        0.02490277173827
C            2.11252155507716       -0.73746213395112       -0.30935281298078
C            2.84798087393282       -1.75317773922679       -0.93632552363649
N            3.44748784304734       -2.58138757956644       -1.46932702955917
C            0.72027404823995       -1.04248297960127       -0.02848595541946
N            0.43263420151571       -2.39811717409054        0.15927737962651
H            1.14714524441039       -3.01943101214851       -0.19394977525111
H           -0.49382187176388       -2.67913156093693       -0.12994849327593
C           -0.26569290004463       -0.11610935669861        0.07092642252948
C           -1.62280014329637       -0.49973567176732        0.49895531727708
N           -1.69946070367830       -1.13387144442249        1.70030832909252
H           -2.59299079129243       -1.48462492530670        2.00751764000292
H           -0.87015180447018       -1.57915287810682        2.05534529221419
H            2.92989460691225        2.11806689169940        1.33128878359142
H           -0.60359406852983        3.11486662064287       -1.06762475877172
H           -2.19513690892342        2.20371139998957       -2.61719060599182
H           -3.66321292771849        0.42431103706349       -2.05706077753342
