27
 energy: -46.904416926433 gnorm: 0.000729903626 xtb: 6.6.1 (8d0f1dd)
N            5.58529355408175       -0.30505804941814       -0.59417137026311
C            4.45467574743030       -0.25179774181426       -0.39707749800168
C            3.06774268899081       -0.19822286624451       -0.15310987014779
C            2.54509744670940       -1.17059949893056        0.75014387491125
C            1.25488114857357       -1.51009340326612        0.94625672935904
C            0.04519938344107       -1.02000667936014        0.31642568184850
C           -0.96692754127129       -1.92415417918524        0.17169469083227
C           -2.28004964075649       -1.70943044418736       -0.36284709975711
N           -3.00746391005058       -0.62869081810308       -0.28192502936647
C           -2.59496489853476        0.56249557957759        0.18062027452020
N           -3.61474473863290        1.35380543843256        0.57994596399373
H           -4.55205210314594        1.02336639911048        0.43381576757004
H           -3.45252779819159        2.32228021805033        0.79768023734934
C           -1.29153369443933        1.08051412620935        0.17126656477551
C           -1.19245356635534        2.46057517376551        0.41197331420416
N           -1.16133004331403        3.59280083676657        0.62267613909484
C           -0.05116756177577        0.38317088456712       -0.05192514119336
C            0.99690756115429        1.12964718187806       -0.56475778356395
C            2.34785825365749        0.82186606917947       -0.73627237677174
H            2.91338931632691        1.52140761526000       -1.34079921655066
H            0.71517111273968        2.10973508950276       -0.93203590461692
N           -2.89206903777005       -2.77786343097461       -0.91200224513404
H           -2.41060907136362       -3.64960004633414       -1.03378440541086
H           -3.81398757166216       -2.66050322086415       -1.29407623921347
H           -0.74049912477421       -2.95527308661785        0.41508025584878
H            1.06975784353483       -2.30791635390648        1.65659003206490
H            3.29146914709826       -1.72632448209192        1.30585532621956
