24
 energy: -38.928503410099 gnorm: 0.000545678532 xtb: 6.6.1 (8d0f1dd)
N            5.05454753335101        0.54705315132289       -0.75443940860590
C            3.95046267273555        0.36324706303377       -0.49257287965838
C            2.59517357577726        0.14827602595395       -0.17330654577865
C            2.03753780218522       -1.05805815950201       -0.55565358056901
C            0.77135839395395       -1.55037132358373       -0.25735188416266
C           -0.32803379483208       -0.88880768017395        0.26856358731614
N           -1.30259959631084       -1.65744865373100        0.77949738534422
C           -2.58482710721480       -1.57558754040135        0.70985562339298
C           -3.35143480808316       -0.66086924714200       -0.02580186945247
C           -2.91372544797360        0.62495806922403       -0.30731150527627
N           -3.78089387488048        1.48926610272622       -0.89448225786019
H           -3.55649878816006        2.46566826315944       -0.96406815199656
H           -4.72308450951137        1.20142419628425       -1.08897884015164
C           -1.65782066587539        1.17617493843727        0.08634958938533
C           -0.46940157998331        0.55360808835772        0.37184342811659
C            0.64158495672924        1.36554264639076        0.80656984025692
C            1.96023197098149        1.18651151108903        0.57064131127445
H            2.63296990744728        1.95384423229093        0.93705952766439
H            0.35729990919859        2.26649399284209        1.33787828844243
H           -1.62801004656939        2.26041047053660        0.08741566255920
H           -4.38582511447316       -0.90269433390667       -0.22457851102468
H           -3.11382074734433       -2.34535116382213        1.26534076022806
H            0.60832760447268       -2.60442371768430       -0.44340347004938
H            2.70211211478022       -1.74196614910194       -1.07142639779507
