25
 energy: -42.642848287981 gnorm: 0.000901703026 xtb: 6.6.1 (8d0f1dd)
N            3.71881630153555        2.22748448000223        0.76429330480522
C            2.85696517678308        1.51641482471301        0.48607656159028
C            1.82127779216488        0.63749412168988        0.13186852201679
C            2.07381852676598       -0.72429835871004        0.19704500740281
C            1.20496659116209       -1.75183888458048       -0.29276895122561
C           -0.14677174128419       -1.74141648215179       -0.42703117582079
N           -0.80463527515588       -2.83428302775318       -0.91351654664939
H           -0.28384465209277       -3.55367385184367       -1.38472922488866
H           -1.78342912893558       -2.75628631973119       -1.12513008846282
C           -0.99905689749177       -0.62978012402302        0.01506935347890
C           -2.13591964883641       -0.87135131327927        0.72990428814625
N           -2.99160628677395        0.02766253338476        1.27186816157246
C           -3.17672718774132        1.20883923403586        0.79657702321386
N           -2.84567565815842        1.61419077527259       -0.44582529344161
C           -1.78281481996035        1.30566271524572       -1.05894393641249
C           -0.59065968216357        0.69761950996533       -0.42184577198976
C            0.63155183947805        1.24638484005489       -0.39587135817341
H            0.74370740957078        2.26265432898546       -0.75357647764554
H           -1.76393853230356        1.45265528110045       -2.13682242988949
H           -3.83779811109356        1.87017283800550        1.34228848926166
H           -2.35176720180906       -1.89063560249578        1.03113359497495
H            1.70405777987518       -2.68367151114865       -0.53687141808778
N            3.27541383994598       -1.15057772873339        0.67989936714060
H            3.54931802218706       -2.10915689636713        0.56494528759022
H            3.99075519433148       -0.47224538994203        0.88090677329335
