28
 energy: -51.418624438312 gnorm: 0.000666491614 xtb: 6.6.1 (8d0f1dd)
N           -0.68476878690565       -3.10606956081586        1.79774329288773
C           -0.22094307191556       -2.21609846646680        1.23978355798204
C            0.38042671975527       -1.08402182687593        0.64660037582986
C            1.75116304144697       -1.13132901963507        0.48274007070644
C            2.60263457406606       -0.19296814624265       -0.10145543210902
C            3.91627414536474       -0.62969750559249       -0.36287336447596
N            4.99493016033024       -0.95890175143220       -0.58737050234009
C            2.31932324247881        1.17145336730101       -0.38298608155178
N            3.29488213358131        1.89842303132919       -0.97190210189636
H            4.19264346318638        1.48300018679472       -1.15796512968731
H            3.18590963383120        2.89030560467694       -1.08639038165579
C            1.16158892486211        1.85124730252339        0.01252545341237
C           -0.06467376983862        1.36531127902843        0.43400190365377
N           -0.86763230557991        2.21124437456729        1.07685813623443
C           -2.15027080894979        2.36307511485337        1.07847918795133
C           -3.07750781264702        1.78890674966253        0.20751751796542
C           -2.88841866013144        0.57594081872337       -0.44300669380874
N           -3.87319447518120        0.11703018413909       -1.24863386640433
H           -4.73721980060648        0.62629856807891       -1.31202522975118
H           -3.85247700710465       -0.83265192457804       -1.58282879056173
C           -1.76955138773171       -0.30624509254835       -0.21693272342198
C           -1.97285030356663       -1.62642422255604       -0.67786041004361
N           -2.19307181983294       -2.65383278452067       -1.14424121669923
C           -0.50156993878889       -0.01437757688414        0.27987534565702
H           -4.04868087483599        2.25471093062412        0.12028684343194
H           -2.51150100752008        3.08518456802895        1.80403934136499
H            1.22246506548210        2.93291958535845       -0.00750446606021
H            2.22151919065038       -2.06507609074047        0.77253576369041
