27
 energy: -52.490892557034 gnorm: 0.000690247753 xtb: 6.6.1 (8d0f1dd)
N           -5.79250681776111       -0.60975723671773       -0.44760492624399
C           -4.65035277809393       -0.59962971606417       -0.34347382618355
C           -3.24539975416767       -0.59583662579004       -0.21710916922072
C           -2.51069950137602       -1.60070799938037       -0.84851723538428
N           -1.29828331183615       -1.94427451333719       -0.51914564257240
C           -0.27898475373563       -1.37315179732835        0.03813575310429
C            0.70562528045680       -2.18029137725907        0.66829572460043
C            2.04217412762192       -1.92924907451007        0.73450043376730
C            2.79026258384951       -0.89434460896314        0.12918645387360
C            4.18947747180235       -1.08734813717925        0.13550631047289
N            5.32917478583579       -1.23089655088059        0.13288555147838
C            2.33171436545804        0.28771908823739       -0.47322673763946
N            3.21806994484458        1.08300658891615       -1.09827794830911
H            2.94124298412316        1.99007204622090       -1.43791955526186
H            4.19619245831316        0.84095847866356       -1.09843499200099
C            0.98299186015260        0.77714178839222       -0.35710556766649
C            0.80962520509283        2.14019092905898       -0.70110062952648
N            0.70616919339766        3.22272196773988       -1.06848851959928
C           -0.15109680838247        0.08292384854451        0.01552896620731
C           -1.30182026096448        0.78807225401026        0.53060530486116
C           -0.97954488862685        1.93493409617187        1.29971488558223
N           -0.73457609355910        2.83299359295326        1.96913370687872
C           -2.63979441292846        0.45206874552208        0.50262713862389
H           -3.30978086493925        1.13789912226348        1.00839413181902
H            2.64879191401194       -2.67954357249048        1.22767397473871
H            0.34346085442908       -3.11920900564254        1.06300295965564
H           -2.98684131381429       -2.23820537784962       -1.58437719455349
