24
 energy: -44.520945925162 gnorm: 0.000729419551 xtb: 6.6.1 (8d0f1dd)
N           -4.32963249502431       -0.36576648518098        0.13255565165376
C           -3.27013535287067        0.07303290823562        0.13162983369250
C           -1.96372910545951        0.61597924054113        0.15312061323182
C           -1.83480788074501        1.92861543647252        0.67096373604022
C           -0.78173079314031        2.78610867360954        0.52837916325377
C            0.44345587061427        2.53817975616853       -0.12533048383640
C            1.00896414586527        1.32958037270496       -0.43183534865918
C            2.24864330212292        1.32787288392712       -1.11310687672502
N            3.21904404075439        1.33088770664591       -1.72439965680096
C            0.46483214347930        0.02362297090725       -0.11433598004250
C           -0.95209940080495       -0.21364803769470       -0.31197743495688
N           -1.24544329038755       -1.27997430965937       -1.06983684281891
C           -0.91422288394484       -2.50506034605565       -0.98847380320220
C           -0.09610193837357       -3.07611559667573        0.03290621835042
C            0.91034762653830       -2.36586205748483        0.60764986917230
C            1.26722721868466       -1.00100211403700        0.35876533232772
C            2.57203439174006       -0.65773315388922        0.79299009993258
N            3.61320178241926       -0.41702496881723        1.20805837947201
H            1.60668754372335       -2.89876831587746        1.24386810370997
H           -0.17149185307295       -4.13692399648480        0.21471781279231
H           -1.26466537620459       -3.14491281824730       -1.79105614912715
H            1.03526703955530        3.41217355002477       -0.37003722929333
H           -0.91941354465007        3.79497219463014        0.89161165160447
H           -2.73058291521619        2.31745864103543        1.13927239813006
