23
 energy: -44.022641305180 gnorm: 0.000821096743 xtb: 6.6.1 (8d0f1dd)
N           -4.57177084836135       -1.05996849620007       -0.40493411772696
C           -3.43416623107517       -0.92738601291008       -0.31560351703761
C           -2.03602679727101       -0.75615637803346       -0.20442980388432
C           -1.61307984579939        0.53373113423469        0.22884723706162
N           -2.56249975685385        1.39157382283388        0.64972435022110
H           -2.31963308173544        2.34561397731325        0.86215832323418
H           -3.53498112093575        1.13401490904358        0.60239207368517
C           -0.28785812160430        1.02263642687631        0.13442917462357
C           -0.09222968857821        2.40999208938502        0.29903456451813
N            0.04862932754654        3.53774602129657        0.46382627292743
C            0.83429008284864        0.26569794006595       -0.21803914870247
N            1.84799602479340        0.75497113449147       -0.88171224018998
C            3.11414500592840        0.44900652332937       -0.93136321228534
N            3.83295381258316       -0.14070010194249        0.00747992005677
C            3.21114670116410       -0.87394374731288        0.91705069675057
N            2.04508711325175       -1.44306173619725        0.80803823686765
C            0.98281573445178       -1.18395679798684        0.08809355870166
C            0.05916536822609       -2.13946433756360       -0.31954576335432
C           -1.28503047631054       -1.89205535012071       -0.51461659594046
H           -1.87753286509617       -2.73848680262937       -0.84254435154787
H            0.40499686999772       -3.15990633202975       -0.40083272370619
H            3.78559289558702       -1.14604011675178        1.79542834018582
H            3.65492672454277        0.84201657260825       -1.78461628305824
