23
 energy: -39.194271085298 gnorm: 0.000642026171 xtb: 6.6.1 (8d0f1dd)
N            4.35217790926065        0.68316000671875       -0.33096073354896
C            3.28145296563522        0.31809802487745       -0.12605900024281
C            1.96630734919969       -0.11878076041587        0.11726005933182
C            0.92519778642495        0.69336206773873       -0.27368357382947
N            1.14691830303738        1.81508594557504       -0.99209115703490
H            0.39638036806123        2.45529958087878       -1.18054049406978
H            2.08394017531932        2.06013940552856       -1.26707533143980
C           -0.47604267338891        0.42337288075343        0.09666504112948
C           -1.24192616780834        1.41536689667162        0.60409745972174
N           -2.51788284909946        1.33568714549154        1.07750463494914
C           -3.42321349961259        0.57613385013123        0.60449015407404
C           -3.34393524978747       -0.29964959351477       -0.55129502325746
C           -2.24529722369221       -0.96649803672766       -0.92279745167580
C           -0.95742515264885       -0.92348098610829       -0.21975770749497
C           -0.26754666613418       -2.06003225223036        0.01928973309225
N            0.87294041050294       -2.22299987106259        0.74008391881682
C            1.82383716782792       -1.37670357679661        0.81825746997396
H            2.67262657398825       -1.68173613878154        1.42290543229393
H           -0.70999122902854       -3.00575103843924       -0.27437490443309
H           -2.29000566730428       -1.62676933952067       -1.78221096080250
H           -4.26544828861784       -0.44123845114582       -1.10160367736619
H           -4.38946764977299        0.64235009881124        1.09576412572121
H           -0.79204158166188        2.38099330707004        0.81084515698958
