30
 energy: -54.057439543028 gnorm: 0.000939704702 xtb: 6.6.1 (8d0f1dd)
N           -5.25104875190634        0.06492603008610       -0.70072732562686
C           -4.17857612211745        0.20673190431739       -0.30840787273055
C           -2.86215193954531        0.35309097916651        0.15665300213793
C           -1.86716852805004       -0.39803717110897       -0.43789784957372
N           -2.11783154557452       -1.13420785002306       -1.54098887467540
H           -3.04929208717194       -1.16116963081141       -1.92413716195628
H           -1.44305028802100       -1.81837126928202       -1.83798396558700
C           -0.49554001058695       -0.45108483361692        0.08669241299511
C            0.14278500599083       -1.63749474864509        0.29070543634507
N            1.40020965385033       -1.81643809477286        0.78410164120370
C            2.41242882865250       -1.03754719488662        0.61413421811227
N            3.56617602770922       -1.38903898707814        1.23240117431742
H            3.59392480555184       -2.28156221741941        1.69370311429100
H            4.43112134154982       -0.94658527603173        0.97443397953294
C            2.47891883986053        0.16938065916857       -0.21210463847494
C            3.72319661855153        0.46388526422424       -0.78769823560877
N            4.75094502763396        0.69546327130410       -1.25266810273709
C            1.43629974903446        1.04796536502888       -0.38377017052908
N            1.57026972331893        2.14241336232219       -1.16173168386329
H            2.45125640967461        2.34447927021787       -1.60582061185190
H            0.82977997207152        2.81933460604094       -1.20560198219123
C            0.13025942058427        0.86374772505487        0.26379821502660
C           -0.45877115345335        1.90259786844259        0.89628577173469
N           -1.62812360400598        1.91228249350947        1.59427339510810
C           -2.66045203686219        1.22504627687044        1.29222469343697
H           -3.52563760439808        1.38243539607930        1.93009281033027
H            0.07663039667956        2.84202366992608        0.98865727622979
N           -0.50171266327112       -2.85667824206320        0.06458313370055
H            0.02187785493057       -3.61978333066665        0.47066271685263
H           -1.47780881077658       -2.88272540436557        0.32470083304854
