27
 energy: -46.899361485607 gnorm: 0.000869136567 xtb: 6.6.1 (8d0f1dd)
N            4.53345654052017        0.12467178023555        0.53815813128335
C            3.39915774067456        0.20398357628602        0.35079505003676
C            2.01557358530214        0.31064530990926        0.13376424029599
C            1.46284387887514        1.59159793370722        0.28088455768517
C            0.13621643457264        1.96806234224043       -0.04017507966739
C           -0.98169898493196        1.18778880811840       -0.16788409184305
C           -1.04583787466293       -0.22996987601578        0.19614900469757
N           -2.02743886969478       -0.72674852379452        0.87185626826636
C           -3.27719014601525       -0.36980513424823        1.08365398360679
C           -4.02814103087739        0.42947672350901        0.25438671887898
C           -3.46703940319733        1.32611003316181       -0.67131013983078
C           -2.15932171515327        1.71614219782067       -0.78041000807421
H           -1.95651445136443        2.52437531501608       -1.47407384321614
H           -4.17341127007622        1.86356090459669       -1.29250396174868
H           -5.10375450208456        0.40915323814546        0.34904314334589
H           -3.74134732570027       -0.88006558687869        1.91984998914991
C           -0.01329760853964       -1.13355697208597       -0.22004277983637
C           -0.45260495706190       -2.44218749750002       -0.49165756502510
N           -0.78645931196341       -3.51276945829028       -0.74886035388885
C            1.35936503250970       -0.89407440896582       -0.27910562130480
N            2.16397202514910       -1.90363714854594       -0.68894057637561
H            3.16144415058089       -1.82558462371684       -0.58377393994029
H            1.76426625991134       -2.81205119044667       -0.85736435634277
H           -0.00608549572908        3.03417854206502       -0.17812391305024
N            2.29164481250491        2.59690104741953        0.64935585639026
H            3.26394510662064        2.41704012130261        0.83117605400330
H            1.94347056873224        3.53453208045333        0.73365888470272
