28
 energy: -51.421752079750 gnorm: 0.000865441964 xtb: 6.6.1 (8d0f1dd)
N           -5.22041236428350        0.15127520448622        0.99489683040701
C           -4.10897457991590        0.02565711713266        0.73040695663705
C           -2.74591277107823       -0.09880531989817        0.39439945775776
C           -2.09800603313152       -1.24178971125967        0.79844356066268
C           -0.79830620801626       -1.65809495124006        0.50478656725922
C            0.29211944888700       -0.95997729645273        0.01752979642639
C            1.41536880211794       -1.76169130412225       -0.41918720362082
C            1.10752619904574       -3.07299951549742       -0.84189648535981
N            0.88463074834877       -4.13962546356570       -1.20540227836843
C            2.74779216586675       -1.41611329687512       -0.51918589871496
N            3.38489774159683       -0.36542164847428       -0.03648893316529
C            2.83359797104208        0.77270300223632        0.32011731986191
N            3.65185146993202        1.62435626131588        0.96419415066570
H            4.60841501002482        1.34457948375230        1.09984129640517
H            3.37379514080813        2.57275235012610        1.15197350458188
C            1.50567933390298        1.23524146527087        0.00008960119075
C            1.38770191896519        2.63625970054161       -0.01994254545247
N            1.34910673426084        3.78711698050379       -0.02635227787080
C            0.33306049637100        0.47959892210027       -0.15342231814785
C           -0.82161047664151        1.20484610917735       -0.54284754986349
C           -2.16998779467014        0.97404531706062       -0.37944409767604
N           -3.04162005517927        1.85715363954266       -0.91977375472224
H           -4.02373208771499        1.78993125288839       -0.71253572735652
H           -2.70119287498517        2.68769948362400       -1.37143381155841
H           -0.59744644505397        2.15174311093178       -1.02356996935927
H            3.41462037244104       -2.15249453777507       -0.95816581438055
H           -0.61079071049658       -2.70443342389671        0.71519685266824
H           -2.70290928743018       -1.95542837673256        1.34562745539246
