27
 energy: -51.716674355219 gnorm: 0.000638603249 xtb: 6.6.1 (8d0f1dd)
N           -4.27503228050050        0.01010008557827        0.94782319881754
C           -3.24856285536605       -0.44187423798652        0.70554301652491
C           -1.98775376304681       -1.01878451946386        0.42533656151252
C           -1.85031836188382       -2.37835414446440        0.72863731065955
C           -0.84043085724433       -3.23651918823496        0.35680179805467
C            0.33161563377778       -2.91033767238034       -0.32739692102803
C            0.89075247515161       -1.66444910467387       -0.52603690257677
C            2.10493309664944       -1.63532727117436       -1.25099363877807
N            3.04159144162060       -1.63219704922789       -1.91436146933152
C            0.39080953105575       -0.38374289937592       -0.10288463123566
C           -1.04018572477889       -0.11809104797384       -0.10625639822567
N           -1.50612101051168        0.99972804323473       -0.63348807068957
C           -0.94689879036108        2.17652542944611       -0.76818821373263
N            0.00058352117260        2.71176297445599        0.02356413408713
C            0.95642410712050        2.00385174451743        0.56811950951665
C            1.28073672038859        0.61354053565622        0.27665225257584
C            2.61330720109498        0.25876191713059        0.56452215921577
N            3.69311548266067        0.04617042014959        0.89860347519943
N            1.77754223958998        2.66163752263700        1.39908100642503
H            2.61794912691538        2.23015980330403        1.74611102722148
H            1.62117940314350        3.64511881382400        1.53955468972688
N           -1.46634298365070        3.00149048791657       -1.68911871848572
H           -1.18834947830498        3.96668693632397       -1.68373000725045
H           -2.28990048258727        2.71491154515451       -2.18863246809013
H            0.91845616123589       -3.74310827704101       -0.69709800260918
H           -0.98835394718396       -4.28542807392806        0.57316612432349
H           -2.70188079225634       -2.81797857080364        1.23454367717216
