27
 energy: -52.492101820320 gnorm: 0.000949400385 xtb: 6.6.1 (8d0f1dd)
N            5.69311413739583        0.96281972909569        0.43932248759123
C            4.57930985438900        0.75051694465953        0.26822724235068
C            3.20379865024272        0.49534193567272        0.05335394227562
C            2.72510987401533       -0.73033792641873        0.49135984390241
C            1.46844379103472       -1.28551359606861        0.26096388394796
C            1.30424622685617       -2.64426737621041        0.62628282143325
N            1.16852564239972       -3.73612397950360        0.94870476486907
C            0.32638798019919       -0.68461964937915       -0.31796123877183
N           -0.55264742341082       -1.48757587876712       -0.88383979537285
C           -1.83454575704295       -1.51852412133118       -0.97760125413429
C           -2.72670621785062       -0.73896331311363       -0.21923038565214
C           -4.05285971284605       -1.18355945848355       -0.07133216914468
N           -5.13993872920391       -1.52596427229056        0.07164332426984
C           -2.39712219218356        0.55248729250141        0.25430235956251
N           -3.35000978697710        1.24108473490144        0.90504903279627
H           -4.25685251043385        0.82531792434659        1.04777728188596
H           -3.21468836739657        2.21097451898159        1.14144309378349
C           -1.17588945481580        1.24511516275028       -0.04633712557271
C           -1.25706172490925        2.64548100629976        0.12285297321435
N           -1.36993421672211        3.78064225343658        0.26287519893934
C            0.09836887910296        0.74570608041252       -0.36271511860809
C            1.12687200128029        1.65697892915480       -0.72689147692759
C            2.47830634538391        1.52445235629120       -0.58959356313166
H            3.07929419199166        2.35714320908179       -0.93481351667059
H            0.77897375365528        2.60196454014482       -1.12658390452929
H           -2.23632904204259       -2.26827210382234       -1.64986321468588
H            3.43894408727206       -1.37823303053635        0.98786535387421
