28
 energy: -50.633434344458 gnorm: 0.000782148702 xtb: 6.6.1 (8d0f1dd)
N            2.97177803138463        2.18518901864599       -1.47980693890003
C            2.46319667989334        1.30128884131373       -0.94385703792640
C            1.88044456649150        0.20980864883275       -0.27654715099889
C            0.55630879082302        0.45854757722339        0.20754632043916
C            0.14272079324298        1.74838311357960        0.43705400982656
C           -1.19467252153407        2.19688466197260        0.59721675214477
N           -2.29052490408499        1.65404004988545        0.10880977488824
C           -2.43530108897847        0.43985801679775       -0.41195283688700
N           -3.55935454018189        0.29079093147530       -1.14767527355200
H           -4.21315711835609        1.05353699753069       -1.16780116657930
H           -3.85575199724870       -0.62737783992408       -1.43223438540192
C           -1.63301650719647       -0.69860153385478       -0.17360074273205
C           -2.19579388087315       -1.94941802998278       -0.47489780885170
N           -2.69403843557884       -2.94604630997416       -0.76359595066416
C           -0.32572642970834       -0.70475584339865        0.37863734441254
N            0.05708834553732       -1.76758013122267        1.02313904920489
C            1.23482567970220       -2.28215451341368        1.29095011090118
C            2.40254470390871       -2.07811267601661        0.59642250108578
C            2.65944240199645       -0.96574592969378       -0.23221068956434
N            3.81819596813197       -0.98207146298272       -0.93968842401454
H            4.13005980176237       -0.15451498295260       -1.41954943244749
H            4.46434710012889       -1.74108733574218       -0.81916944328785
H            3.20916616295295       -2.78654720415106        0.72458914656480
H            1.20984433979118       -3.03763789928578        2.06884149920874
N           -1.38322688208304        3.38506958679683        1.21216710704597
H           -0.60116628107026        3.95330941868421        1.48191490593245
H           -2.30760772155173        3.77864484241807        1.21714988120246
H            0.90431147329931        2.51620387973707        0.49483468085267
