27
 energy: -46.905026872558 gnorm: 0.000419606521 xtb: 6.6.1 (8d0f1dd)
N           -5.00715021817746       -0.57189932466406       -0.17230780359147
C           -3.85617742744463       -0.58195269531258       -0.17436037940144
C           -2.45005435979263       -0.57597254615189       -0.18031275003573
C           -1.82156748757720        0.59958150460717        0.26150333217685
N           -2.60035083536580        1.59393290758395        0.74550740188014
H           -2.19639747981793        2.49095703456492        0.95670396975081
H           -3.60213107612901        1.50300279314166        0.71025617690238
C           -0.42618325335778        0.86612169722417        0.16194318095384
C           -0.04394691773482        2.20919372731249        0.36289164147086
N            0.23769742173989        3.30891324695559        0.54971697929780
C            0.64851820767512        0.01658320670161       -0.13770499007991
N            1.75799051449164        0.64597808683233       -0.51363925858051
C            3.02359069835921        0.42963274168812       -0.33266971012997
C            3.57158971885809       -0.54277932314488        0.56757568955453
C            2.93578594823573       -1.72074919412351        0.82431760604104
C            1.68413181497919       -2.16027355290895        0.35092642214196
C            0.60578877614794       -1.43633458716715       -0.12708194761804
C           -0.53771191109242       -2.15374206535624       -0.59070796483917
C           -1.83880308541898       -1.76444964472891       -0.64210704339477
H           -2.54270073544667       -2.49884512986672       -1.01781174559634
H           -0.33113308834908       -3.17164018318920       -0.89853869305844
H            1.50669133749124       -3.22356871805058        0.46004197578923
H            3.48917420916740       -2.45436557808351        1.39871861329272
H            4.57827616163406       -0.38732838644418        0.92657277070415
N            3.87661988803143        1.20320818154264       -1.03827671324816
H            4.85336666114508        1.22206672923987       -0.80822131154214
H            3.49202617004791        1.94931468319945       -1.59153741174043
