30
 energy: -58.901230516293 gnorm: 0.000461923745 xtb: 6.6.1 (8d0f1dd)
N           -5.26806937062892       -0.00116752761160       -0.00203853112948
C           -4.11633192829390       -0.00041391450288       -0.00165383490853
C           -2.71844936359908       -0.00009181447134       -0.00084497472986
C           -2.02008356042054       -0.93311277783711        0.80705706182436
N           -0.77847491251724       -1.32205609988070        0.59624646961449
C            0.25834977977984       -0.73872335842423        0.05335633899948
C            0.25823982638994        0.73910513831879       -0.05271361187822
N           -0.77828531392469        1.32224422678195       -0.59641321471958
C           -2.01963709449837        0.93302701344271       -0.80822220533806
N           -2.67675141790663        1.57783572415782       -1.79811824992113
H           -3.67796895081014        1.49913809848250       -1.85619317379492
H           -2.22556804616811        2.36870507672490       -2.22460204470489
C            1.32637459887267        1.51344769252896        0.42380378803699
C            1.08217589123946        2.86635988547482        0.71090995907936
N            0.92007297116143        3.97342718090667        0.97738398349994
C            2.65458432610888        1.03333073747102        0.60408219718460
N            3.21323023709877        0.00042353333521        0.00152808142742
C            2.65525586604317       -1.03254338362072       -0.60155102454149
C            1.32697372846130       -1.51286661985035       -0.42240930246553
C            1.08311691077586       -2.86576163149189       -0.71004581172294
N            0.92175449053406       -3.97303680505017       -0.97599225685529
N            3.49692512166519       -1.76522172531667       -1.35957011523729
H            3.20587056112646       -2.66091637417234       -1.71279010876619
H            4.47198492553936       -1.52181296882365       -1.35963742043523
N            3.49548791734076        1.76618017355897        1.36278272987430
H            4.47059342180753        1.52294665134040        1.36366752901386
H            3.20399270445887        2.66185686966083        1.71568654015131
N           -2.67787140685917       -1.57814182870842        1.79636499490911
H           -2.22683207279184       -2.36885097867031        2.22328775684780
H           -3.67915895529053       -1.49976063034239        1.85358067358367
