21
 energy: -39.003837058978 gnorm: 0.000378881235 xtb: 6.6.1 (8d0f1dd)
N            3.40374056062683        1.29843158860658        0.91776808921485
C            2.40225101172908        0.71118905741930        0.22711641174535
N            2.80058598646973       -0.29700796612295       -0.55362170098365
C            2.01659584709800       -1.13714607579334       -1.18319729234184
N            0.80941104725989       -1.53390604738951       -0.87644990636611
C           -0.01316398295742       -0.86427446834842       -0.09627402703772
N           -0.84592430407672       -1.45442410337923        0.71935774751236
C           -1.98883047429465       -1.01738058281488        1.19543986937907
N           -2.82362489035860       -0.15972757459625        0.66914021466237
C           -2.39505571381570        0.71606706438688       -0.26462753717798
N           -1.18117840198176        1.21111420812763       -0.38744931538503
C           -0.03465647761076        0.62663418619087       -0.08895815975401
C            1.12114954095726        1.30058770398460        0.25853230698202
H            1.03291340695407        2.32373269764148        0.59871252037694
N           -3.36207325073124        1.26552307229903       -1.02716589800060
H           -4.31722767199013        1.06175209752713       -0.79273882449766
H           -3.14178374817800        2.06753406373271       -1.59019693146880
H           -2.34553178875266       -1.54008811946644        2.07757357014935
H            2.49379451511646       -1.68777940545222       -1.98867959088633
H            4.33823622463871        0.95605597547420        0.77845138338861
H            3.25690594739712        2.16333913527270        1.40498160278905
