27
 energy: -41.279525764633 gnorm: 0.000621084124 xtb: 6.6.1 (8d0f1dd)
N            3.97211586435664        0.59485369629927       -0.64541574211011
C            2.68420249026156        0.32356991277612       -0.21933145991635
C            2.17138815945396        1.23619935685596        0.78643882368398
C            0.89625860068529        1.57292234660750        1.00297836808593
C           -0.25841283710208        1.08249276920009        0.25427729475366
C           -1.24199794296047        1.93305134955443       -0.13104305598490
C           -2.42612866870568        1.59480683273857       -0.85539413578593
C           -3.03183915197333        0.38372689454098       -0.86203465171549
N           -2.76985659609457       -0.64991471858107       -0.02257496899404
C           -1.62728587749774       -0.91095078785321        0.48876211818424
N           -1.55658485124640       -1.72961262308051        1.57321808256735
H           -0.68995175117387       -2.20168670854689        1.76358079804255
H           -2.41239614529649       -2.14799963765153        1.89685849788482
C           -0.31598526106050       -0.35418981003011        0.04136936439395
C            0.67831506547711       -1.16339689208916       -0.39253836839914
C            2.01022462410428       -0.73403867994752       -0.73204803471626
H            2.55399197459351       -1.38827641798633       -1.40559856378468
N            0.44832708513229       -2.54552698859249       -0.51639460782214
H           -0.51821554893321       -2.78056430221802       -0.70082890516745
H            1.07108040667010       -2.99660958374755       -1.17182193537502
H           -3.92671490660846        0.22786644757281       -1.45287119646998
H           -2.89827166412309        2.39962142571726       -1.40383220075595
H           -1.08412121033871        2.98903443490687        0.05638857820533
H            0.68184980089731        2.29682962721113        1.78166859225213
H            2.93594292683302        1.71722572347058        1.38680807915179
H            4.45729900621422       -0.14624652229522       -1.12457446566507
H            4.54681322913525        1.14985217876750       -0.03334053774411
