27
 energy: -42.078333687902 gnorm: 0.000707933563 xtb: 6.6.1 (8d0f1dd)
N            4.30256630109070        1.23171718875864        1.30060559158832
C            3.36966724075200        0.74280351353145        0.84127181308774
C            2.22195951047552        0.14712777685773        0.27922725918369
C            2.17515428712714       -1.21708181226814        0.22857840572409
C            1.17546214939728       -1.99981049352551       -0.40049180450216
C           -0.10786979656474       -1.62738452485807       -0.65493342150463
N           -0.92252022019768       -2.37070809465851       -1.46157564992032
H           -0.58651234717374       -3.24993729956314       -1.81614547926012
H           -1.91711486783060       -2.25231816949926       -1.37593854587159
C           -0.73057871046068       -0.40073090866199       -0.11224786437405
C           -1.86821212596032       -0.47006061040333        0.62490783605388
N           -2.40842747369164       -1.72069405156652        0.96479193686143
H           -3.05063803840317       -1.68226371287423        1.74317634814218
H           -1.71887453773559       -2.44954568512957        1.08559668551103
C           -2.62375656226412        0.67044291169164        1.08883466755753
C           -2.71306999855901        1.87681424861101        0.50207224123622
C           -2.05240768084482        2.29063756280027       -0.70740270085854
C           -0.88642995780955        1.82590938729370       -1.16966710896033
C           -0.04825008884144        0.83353160286540       -0.49015496227171
C            1.26532950581540        1.05688419084897       -0.30186345843386
H            1.65832019555099        2.02890051799507       -0.57568131392333
H           -0.48908275135611        2.22209504177833       -2.09670083170171
H           -2.55132899425953        3.07724401123012       -1.25992384873379
H           -3.39821638681090        2.59841691531189        0.92818704050681
H           -3.25199769352137        0.47986535645146        1.95185892434543
H            1.47653035922816       -2.99337194896032       -0.71183029719802
H            3.03339756314677       -1.75666326645816        0.61127110491545
