23
 energy: -39.206733477573 gnorm: 0.000885344561 xtb: 6.6.1 (8d0f1dd)
N           -0.88591015275465       -3.29387938623427       -1.46305922186974
C           -1.07981576714947       -2.26024381509363       -0.99790738973407
C           -1.30104004506124       -0.99556740490584       -0.42252855258962
C           -0.11545655414196       -0.21004948858298       -0.13138632039413
C           -0.19983812679179        1.24317802745840       -0.23008581615274
N            0.75371312073960        1.89039113807032       -0.89829344082151
C            2.03296742765620        1.72966838722277       -0.95677248037645
C            2.82646738170895        0.89139339364380       -0.16778809660722
C            2.36407984914155       -0.30285175617190        0.37323810449371
C            1.05583200769320       -0.84221567505175        0.18477830315392
H            0.98098755774700       -1.90951331053013        0.36064689894919
N            3.24398813388748       -1.10227997784817        1.02254889879419
H            4.21288231421297       -0.84266859373424        1.07806415302237
H            2.98880692816696       -2.04432421078199        1.26186727139197
H            3.88636477929616        1.09566189360331       -0.11189096924228
H            2.53239171204349        2.38028256197119       -1.66876557288947
C           -1.23128548350649        1.98731991577417        0.33040619644835
C           -2.43458916684898        1.49607150549122        0.83715575980510
N           -3.06959298798081        0.39335378520547        0.53807979716483
C           -2.60515997958098       -0.61551050725724       -0.18749698314586
H           -3.38720189678188       -1.28564176655293       -0.53533650530026
H           -3.00326840473919        2.15399497131185        1.48944554441244
H           -1.04572148396400        3.04989894509566        0.41565353199029
