22
 energy: -39.495463335778 gnorm: 0.000748753954 xtb: 6.6.1 (8d0f1dd)
N           -1.92849589258926       -3.02111028856962        0.00036765315869
C           -1.52635601640896       -1.94353607286619        0.00329114441678
C           -1.09481641374534       -0.60600081877218       -0.01473040394263
C            0.25181983322636       -0.33100209870851        0.11883372453932
C            1.16056742837438       -1.31025588822078        0.62620147316851
C            2.52893209399560       -1.34002270802875        0.53255574156282
N            3.33223427016135       -0.69971431870377       -0.32555874616011
C            2.91549901682309        0.31423881275486       -1.03029011744093
N            1.94944272215933        1.15151225999529       -0.72709397329153
C            0.84001201910734        1.00277948074516       -0.07243958307425
C            0.22742215407602        2.13730827950045        0.53017203985712
C           -1.11030081086085        2.29361820706029        0.75461393028971
N           -2.13437466864832        1.60462492601732        0.25298715190546
C           -2.12967300096283        0.39291573152889       -0.22719192101569
N           -3.23640248359231        0.00302262591216       -0.88556613340929
H           -4.00386892497888        0.65018031711609       -0.94783609016193
H           -3.37639440920603       -0.96224652711609       -1.13160594244710
H           -1.43695795700378        3.17545559831224        1.29683324220005
H            0.89567309294315        2.94672511318935        0.78874427824921
H            3.52574491719272        0.60013609092322       -1.88072198378448
H            3.05239263658267       -2.08390558086165        1.12409260362377
H            0.69713776833493       -2.08448028578756        1.22681397077565
