28
 energy: -51.425758203549 gnorm: 0.000778868791 xtb: 6.6.1 (8d0f1dd)
N           -3.52860428026853       -0.19928321978189       -1.62360456993534
C           -2.69495162994359        0.32262772345770       -1.03160811410528
C           -1.63888954185058        1.03983406989441       -0.41658364246114
C           -0.57875349923442        0.26332504470982        0.07026051975030
C            0.74284369640382        0.79836240231423        0.32552838534684
C            1.90549447577965        0.09160207570165        0.05369094214687
C            3.14457938231361        0.73452369807988        0.22075860064725
N            4.18928745636661        1.20431398834375        0.33107237075490
C            1.99875096246278       -1.23778932406756       -0.53007072877814
N            1.19874113941236       -2.23968672727995       -0.31106823523178
C            0.01929260560268       -2.19912512218993        0.32672793258336
C           -0.86152819687157       -1.10626713463409        0.38274125244659
C           -2.14929134561056       -1.38323485736588        0.87870816302901
N           -3.15080269996990       -1.66239040624047        1.37215680286973
N           -0.36209074875589       -3.38541420234211        0.83639392623253
H            0.21566994473395       -4.18750808149567        0.65605792342398
H           -1.29301454024645       -3.50688326298720        1.19873854494938
N            3.06663569531192       -1.48693413230868       -1.30546160194991
H            3.19624268997326       -2.42046820782000       -1.65614558685691
H            3.79870743338271       -0.80535308336645       -1.41196947525961
C            0.88582035689091        2.07374414176730        0.96661227925892
C            0.09646746705268        3.17992030417893        0.92069916571480
C           -1.06259761415776        3.39825125147093        0.14873989719830
C           -1.79846506167021        2.44110568721061       -0.48716830118907
H           -2.66883922994359        2.76708915014229       -1.04406714483747
H           -1.40824223480989        4.42011247097704        0.07978600564165
H            0.44220464990658        4.03144812281008        1.49300823016428
H            1.79016534703835        2.15611558922002        1.55901429564617
