34
 energy: -56.929043449185 gnorm: 0.000663175373 xtb: 6.6.1 (8d0f1dd)
N           -4.21648159411024       -1.59341442608629       -2.12432797765803
C           -3.45136755385957       -1.06602144523724       -1.44288254489280
C           -2.54705716163366       -0.41573148614096       -0.59018067832904
C           -1.49555178511814       -1.23954226316052       -0.05245820089851
C           -0.30075770188265       -0.83657887911088        0.42038049167665
C            0.60935772689371       -1.80964007800095        1.03993220257299
N            0.01956210006052       -2.69984421056814        1.88983492535334
H            0.59725508948999       -3.27418219451641        2.47945150827190
H           -0.92385665010220       -2.52512077405951        2.18748428772686
C            1.93539477078132       -1.90044093381241        0.76409580348569
C            2.68618836826886       -1.11264588841097       -0.15982379369465
N            3.86343199041790       -1.67023623082913       -0.58111608583698
H            3.97001989410165       -2.66753454335457       -0.51764321915374
H            4.37071834157745       -1.20391131222601       -1.31543935902957
C            2.38331029374422        0.18143440024399       -0.54594969584724
C            3.25027938908054        0.80462710526757       -1.45326681571131
N            3.95507302802481        1.31437892432666       -2.21115480260524
C            1.32368772490009        1.01626918779959       -0.00373983904699
N            1.61421753091880        2.38988106533754        0.04561978415287
H            2.39589967099424        2.65196821689455       -0.54013402888595
H            0.81319114669742        2.98576171956631       -0.11458864194953
C            0.13567867892380        0.55975685704551        0.45936615782141
C           -0.80951986109051        1.47359919425771        1.12820578128895
N           -0.29135303208917        2.14340508531781        2.20323887672342
H            0.70861616145100        2.25650835642435        2.23088024781072
H           -0.84049869140901        2.87681240769024        2.62068902956651
C           -2.10732664163525        1.62760137661504        0.76674065978095
C           -2.82700198070563        0.88967863869068       -0.22666660053424
N           -3.90232808529300        1.52678571754218       -0.78366002157750
H           -4.26037072421444        2.35209802545068       -0.33618645293191
H           -4.55021563904147        0.97906796073941       -1.32609352586218
H           -2.67367175297699        2.40860241760635        1.26297785136631
H            2.48307844654259       -2.71695124456093        1.22025849779116
H           -1.69463627060717       -2.30448720994160       -0.09107045374437
