30
 energy: -50.048750601163 gnorm: 0.000835777781 xtb: 6.6.1 (8d0f1dd)
N           -5.04303675415410       -0.23715565229804        0.98815427434652
C           -4.00007900243959       -0.05194319726725        0.54066421818857
C           -2.71338821936166        0.14862116759600        0.00659759254942
C           -2.56189909060823        1.28223077203765       -0.86655366740191
C           -1.43079503554820        1.95827919958444       -1.13674824235364
C           -0.11622479274958        1.70483801081863       -0.59831484491302
N            0.70167384327883        2.82942322212456       -0.47085193768861
H            0.41727361850668        3.61199033970314       -1.04084310115023
H            1.69404745783108        2.64984312178373       -0.52967527227714
C            0.33101845915681        0.48475738746927       -0.20210590211583
C            1.64227543451776        0.33357735736874        0.45707633235058
N            1.81087160233628        1.05397603737666        1.59489354260101
H            1.18129227827115        1.81287881023555        1.78903778857785
H            2.69585688965624        1.02338768609095        2.07462903407069
C            2.62777221002429       -0.49134791397731       -0.02820223699549
C            3.90054341175741       -0.40561817758805        0.56481675860033
N            4.93660976185725       -0.29996318756313        1.05367976040172
C            2.49269273332196       -1.43231881196586       -1.11224444220473
C            1.36037891834963       -2.05575036021668       -1.49036795775097
C            0.06263929996643       -1.88195342388444       -0.90664510371526
C           -0.41511832159964       -0.76544951749051       -0.32085542791333
C           -1.74181320916503       -0.77178078268676        0.31762562380694
N           -1.95940985687718       -1.75613473033395        1.22110513416013
H           -2.85692083454543       -1.83995472498804        1.66832836089899
H           -1.28888235856608       -2.49681779021052        1.32174422347617
H           -0.60268545537527       -2.73327605814688       -0.99295066916593
H            1.43215591748737       -2.82142723482924       -2.25123443796917
H            3.42522557824017       -1.72647401683692       -1.57750731082323
H           -1.51248304725463        2.84507997638401       -1.75304764978082
H           -3.48963244211487        1.66150565071018       -1.27660503630792
