21
 energy: -34.962469165785 gnorm: 0.000801087661 xtb: 6.6.1 (8d0f1dd)
N            3.49481462720968       -0.41776717237543       -0.93147745243989
C            2.39093289118918       -0.03517746615460       -0.23480732488000
N            2.02645013533736       -0.86205929841165        0.78874543820078
C            0.83139011092310       -1.09071060787533        1.14617782533241
C           -0.36587765867567       -0.69860277726793        0.37749891813962
C           -1.32247451054365       -1.53907840915242       -0.06970756923978
C           -2.50763452712776       -1.13257983223457       -0.75905859022653
C           -3.08783477545166        0.08838854591207       -0.64941486175839
N           -2.80479259679531        1.01083961719929        0.30176079586132
C           -1.67721301798139        1.27640837086592        0.80369909408913
C           -0.37704595235643        0.75333823404830        0.32945675346216
C            0.68638333865097        1.53666286327695        0.02422452846061
N            1.88896637525886        1.14015199193854       -0.45617902712326
H            0.56952342156386        2.61391412683730        0.04816817229648
H           -1.66912212880884        1.93213265590084        1.67077181844010
H           -3.98584189947217        0.31794182097721       -1.20861874244202
H           -3.00432940822560       -1.88478461528606       -1.35671259450393
H           -1.15578697529214       -2.60326639129061        0.04058995381843
H            0.69308714100456       -1.56368876760708        2.11672958981970
H            4.06550689083574       -1.14170731573676       -0.52953159608223
H            3.95657993045695        0.30257128583620       -1.46062684852492
