25
 energy: -37.839279715772 gnorm: 0.000618562468 xtb: 6.6.1 (8d0f1dd)
N            1.52904458925634        2.38542063254256       -0.97494940419830
C            1.60964188461768        1.17519581232781       -0.31794326370904
C            2.81175222201578        0.69639485639870        0.08348400641885
C            3.08100040389974       -0.52683886653124        0.76734948127315
C            2.32843220629535       -1.64778628123885        0.75309130606868
C            1.09864136402017       -1.82653693466489        0.04432904510496
C            0.20215683831698       -0.88112218690882       -0.30603442741475
C           -0.97447742599575       -1.25590188414555       -1.10007299253596
C           -2.23218108940079       -0.88596471962656       -0.84981564220046
C           -2.64182860642956       -0.02067103665381        0.25735797925451
N           -1.98300267385582        0.95924930167919        0.76192297364421
C           -0.71889518116315        1.32101324767291        0.40018257634147
C            0.30933383246172        0.54927194668965       -0.01779143107599
H           -0.52498236452527        2.36742453125899        0.61008677332523
N           -3.93074456939928       -0.19548733182998        0.69188286059308
H           -4.17385886242420        0.30851550722754        1.52899947804797
H           -4.35706427151295       -1.09792089181764        0.56842722647131
H           -3.03535356386475       -1.24944493360856       -1.47933359467520
H           -0.78276311836460       -1.91039730717073       -1.94470511797189
H            0.85137647399275       -2.85301220989880       -0.20475204944295
H            2.71682788368501       -2.53073655463199        1.24441468864629
H            4.04004695142587       -0.57031816094961        1.26918665532022
H            3.67465391862972        1.32442791875469       -0.10827630153234
H            0.66103851532438        2.59382395790366       -1.43938126700239
H            2.36204248169413        2.71474493401913       -1.43561843765280
