22
 energy: -38.714073801998 gnorm: 0.000399648533 xtb: 6.6.1 (8d0f1dd)
N            3.42853342054235        1.48588026499308        0.84761666769990
C            2.43929193284786        0.76913653682507        0.25877539128814
N            2.88457760324588       -0.26202330635785       -0.45394068402244
C            2.19183417981165       -1.25979400184692       -0.95773799019875
C            0.91205798221528       -1.69701546589530       -0.66782079666761
C           -0.02982188080057       -0.95659125591312        0.05238472431373
N           -0.97394843415516       -1.53538243575199        0.75609373418086
C           -2.13747565671302       -1.10459550599650        1.16995899286364
N           -2.91882619767782       -0.19967798641504        0.63190973159961
C           -2.38512124949914        0.68782601781836       -0.23282795838145
N           -1.14576943717756        1.11884430662317       -0.28474523481812
C           -0.00969381484698        0.52534531585627        0.05135967847859
C            1.12349672460214        1.26060586606117        0.33649145339425
H            0.98761703936176        2.30474115399597        0.58552231352228
N           -3.27537073122934        1.30737806981313       -1.04017135392618
H           -2.98203442685607        2.12488509965534       -1.54454354889402
H           -4.25119398274054        1.15769924578924       -0.85513468039988
H           -2.56864139050871       -1.67056218905872        1.99116569952162
H            0.63813141080956       -2.70421482304550       -0.95038908886824
H            2.79543752307621       -1.89319326942038       -1.60316966781818
H            3.23765361053817        2.38548142419882        1.24966283841365
H            4.37789306865299        1.22999861467236        0.63973074411988
