28
 energy: -50.642013793262 gnorm: 0.000350693318 xtb: 6.6.1 (8d0f1dd)
N           -1.61680103356945       -3.74261317187977       -1.47765004969633
C           -0.86508133185956       -2.96170338684678       -1.09270296784002
C            0.06820486319846       -2.01459609015550       -0.62733970087007
C            1.38605792557250       -2.44629973570233       -0.60412459913354
C            2.51288485195085       -1.82862172551995       -0.09645102711305
C            2.64903577154098       -0.51730193876072        0.36291468080975
N            3.83841052124439       -0.17203072523056        0.91804361335992
H            4.02928015161146        0.79347598011862        1.12783738760514
H            4.60923351970103       -0.81507529957928        0.88038113096485
C            1.68042856788586        0.51312209715135        0.23078875918829
C            2.13463520294460        1.82278770110873        0.49232074477965
N            2.54908517805289        2.86971137610203        0.72808550094485
C            0.33156780220155        0.45306970036003       -0.16244523174453
N           -0.18682055086517        1.61194368609690       -0.53734517254984
C           -1.41626289669873        2.06168111571523       -0.53951556955952
N           -2.44792781152792        1.66309484326529        0.21933263739560
C           -2.58395884861190        0.40546606471485        0.59255090998216
N           -3.67000141915437        0.15494413549189        1.35375325885966
H           -4.29697173412112        0.91530788532774        1.54892389542294
H           -3.94660219978977       -0.78623528482545        1.56594537773854
C           -1.79561348717055       -0.71827322747180        0.21033224487429
C           -0.47751780162542       -0.76089904267847       -0.19369218490863
H           -2.29305325579384       -1.67532767984039        0.31509954602518
N           -1.65432968288946        3.14281472663414       -1.30957172132271
H           -0.86914353720704        3.60855438080547       -1.72936095442024
H           -2.51218128923061        3.64486022848391       -1.16519141085790
H            3.41080633985281       -2.43194133136333       -0.05350590717263
H            1.53555451595775       -3.45456013772197       -0.97482464286146
