26
 energy: -48.752541081097 gnorm: 0.000765927538 xtb: 6.6.1 (8d0f1dd)
N           -4.19032043026219       -2.72388988906929       -1.55936469773079
C           -3.40210066303879       -2.03667383436081       -1.09347777679632
C           -2.42763228102877       -1.18205419501649       -0.50947899135978
C           -2.95534148114071       -0.18083610650707        0.38432539995242
C           -2.34852351405213        0.99820552253093        0.66807876508425
C           -3.05126987097256        1.92736475101440        1.47881669325950
N           -3.60587960439812        2.68540486195150        2.13468415794603
C           -1.08869233849536        1.47034664475673        0.14780275651590
C           -0.03072090846047        0.73185796105783       -0.24741953788760
C            1.13073718299871        1.41409285209986       -0.81214270918549
C            2.42771438905652        1.18210364486743       -0.50933996727806
C            3.40210335984494        2.03716732400982       -1.09276428009516
N            4.19053971485597        2.72386393725075       -1.55903406354687
C            2.95538603791397        0.18085218027836        0.38447865858930
C            2.34855435580341       -0.99821141697163        0.66813157048966
C            3.05123003300354       -1.92738941243394        1.47889973302416
N            3.60620922812128       -2.68591464953880        2.13362488571410
C            1.08877354144587       -1.47033452476492        0.14769764963231
C            0.03080811575206       -0.73181963097311       -0.24750125616108
C           -1.13064790659569       -1.41400904594043       -0.81228293204258
H           -0.90834826596665       -2.22080808215723       -1.50156917971227
H            0.97924837400391       -2.54831715998434        0.13283458957100
H            3.94775460791874        0.36418584132788        0.77582004588602
H            0.90844169697109        2.22103996864130       -1.50125146353292
H           -0.97914235630925        2.54832619614143        0.13308369948375
H           -3.94771731707024       -0.36421056121078        0.77562003917882
