31
 energy: -53.765189722139 gnorm: 0.000518252549 xtb: 6.6.1 (8d0f1dd)
N           -4.98775376968472       -0.23210491521980        0.90375422058727
C           -3.92727702313206       -0.30825593390895        0.46464066810611
C           -2.62682407980996       -0.36437373643384       -0.06378549863861
C           -1.68510147051527        0.53077148486239        0.39866167973450
N           -1.92537224702719        1.33630538183751        1.45207485115919
H           -1.28220411703735        2.07754489889987        1.66727590620035
H           -2.79611761451232        1.27244792566032        1.95419001692429
C           -0.37280736977506        0.67036283578439       -0.25707746207401
C            0.06060297569162        1.86291592930381       -0.73708863765716
N           -0.75916220089187        2.99227450125900       -0.68712375712411
H           -0.47310069605617        3.73461165265648       -1.30748974162760
H           -1.75131821618322        2.81146959940005       -0.73345490538532
C            1.38005656172199        2.08524109295423       -1.28430075369062
C            2.51524059920289        1.45217026474698       -0.94173246824615
C            2.67137739738271        0.40015768508133        0.03036088103770
C            3.94901796096223        0.27212399429373        0.60455405378929
N            4.98856681429719        0.13578105780705        1.07821763073400
C            1.71034312043235       -0.51229240026939        0.39601632273266
N            1.91207866231440       -1.39533206828365        1.40461353734091
H            2.81590145133337       -1.43869203680919        1.84784331434560
H            1.30624551813186       -2.19577921311609        1.46941462413269
C            0.39690174276318       -0.57532699189586       -0.26275474855720
C           -0.08213751284471       -1.74569713924115       -0.76491458714810
N           -1.28705168602999       -1.93592916818339       -1.38991261197424
C           -2.37757758726001       -1.33610697655403       -1.09915690013149
H           -3.24704209016045       -1.67289251170459       -1.65677597471497
N            0.67398196826522       -2.92180755102805       -0.72225334340552
H            1.66115973466444       -2.80066564302803       -0.90251571057962
H            0.26407733775877       -3.63261061638793       -1.31271111109137
H            3.44345685496449        1.80618434041055       -1.37330368963951
H            1.45593667954084        2.91418568089609       -1.97723026353343
