32
 energy: -52.674762438789 gnorm: 0.000958041503 xtb: 6.6.1 (8d0f1dd)
N            4.85982756727086        0.64883786008075       -0.26801761878306
C            3.77655648056503        0.34685085823084       -0.02028968893337
C            2.44814662345194        0.01213652654520        0.28015767958255
C            2.24146009687194       -1.04394742562766        1.24207644025430
N            1.25764938488223       -1.85083667990379        1.35671126872715
C            0.14483373538845       -1.85802297585675        0.55232739823934
N           -0.37240137416275       -3.15831204650430        0.38822432738333
H           -1.37858007494754       -3.20710179900125        0.48659631499904
H            0.08905759222105       -3.79413656113629        1.02601049673098
C           -0.45905921395533       -0.78953144077786       -0.02504058657813
C           -1.63317685583990       -0.96797191185588       -0.89860786414544
N           -1.44371323409045       -1.83641855118050       -1.94503566369864
H           -0.74543389606504       -2.54965087874739       -1.80628850500723
H           -2.25532023542279       -2.11135543557115       -2.47468140250382
C           -2.79206326636242       -0.29261483798175       -0.73500062603578
C           -3.05792777827497        0.74217400076426        0.22775014760919
N           -4.38506380655604        0.86860535313381        0.60001697601102
H           -5.06886861860757        0.48766596741766       -0.03302197753317
H           -4.65166491410003        1.73989599813884        1.02957896665366
C           -2.13617876950257        1.59098727870305        0.75787939918154
C           -0.73265102269231        1.64576445280868        0.47226256798361
N           -0.15311938246115        2.91932563904944        0.58749565044532
H            0.82217634542537        2.91608533978763        0.85348724979406
H           -0.69398055659394        3.55309296258352        1.15798699175208
C            0.03085452911571        0.58447992122495        0.09667480112031
C            1.43337400357143        0.74125421054121       -0.30672842805484
N            1.68985531301749        1.65170113140359       -1.26984179295714
H            2.63279186046911        1.80137282537323       -1.59022580816322
H            0.95869156485696        2.27623875272846       -1.56183859929047
H           -2.51137613895896        2.38510915920503        1.39396074202860
H           -3.62593738457027       -0.56164638077696       -1.37427955458914
H            3.07074904795400       -1.23658682539982        1.91798652167756
