32
 energy: -58.306884801683 gnorm: 0.000887386782 xtb: 6.6.1 (8d0f1dd)
N           -2.55274317215605       -3.71683718604275       -1.42566649129964
C           -2.18117440686079       -2.71188067664657       -1.00552374615236
C           -1.73998764187651       -1.48828031706417       -0.47315535485984
C           -2.65976186847273       -0.46043511476987       -0.38122345204047
C           -2.41694339765897        0.79841679386492        0.29575228485692
C           -3.56118086662566        1.45233838313539        0.78607523888984
N           -4.49168328118301        1.99369326248007        1.19434421574329
C           -1.21124882632237        1.45343128131382        0.44623283460846
N           -1.16175553878262        2.62472064856386        1.11657262841793
H           -2.00625013245174        3.04568163402566        1.46861951115136
H           -0.30401593849269        3.14572167025673        1.14872937986178
C            0.06436982069851        0.97790472332172       -0.08903110884165
C            0.88443512590779        1.84988424213544       -0.72548711835853
N            2.06545901522228        1.61622508426827       -1.33801178027598
C            2.93429736076770        0.73197618226565       -0.98031512209642
C            2.90047226149924       -0.09118249524240        0.23239251037031
C            4.13865413725469       -0.42214265422723        0.80011042981134
N            5.16353195693520       -0.68524551086136        1.25505421119119
C            1.75297098592287       -0.62018481515665        0.77495205585152
N            1.80421914965081       -1.38289061342737        1.88837725644898
H            2.69314219018195       -1.60878891077680        2.30425137571799
H            0.98012385876763       -1.86062430273979        2.20685585596445
C            0.41994632760157       -0.41930319148206        0.18981407364300
C           -0.39287170355743       -1.48189793438875        0.02272393536591
H            0.01922401454588       -2.46928192721772        0.20189948661732
N            4.02708797242596        0.58319723704624       -1.76578170915481
H            4.13888883573090        1.22552736584835       -2.53099911705885
H            4.83053305519620        0.08367523869795       -1.42571488015293
H            0.52805120776117        2.85861200512507       -0.91201895549172
N           -3.91030486559424       -0.63037731153092       -0.88321695771500
H           -4.63417587078373        0.03070529308305       -0.65909897311039
H           -4.17810061465148       -1.53775256205714       -1.22664811380249
