28
 energy: -51.429755423762 gnorm: 0.000510403272 xtb: 6.6.1 (8d0f1dd)
N           -5.49241708641618        0.16516602275720       -1.05988565336439
C           -4.41138380619361       -0.08651326427522       -0.75714069250123
C           -3.09025546290335       -0.34760586258925       -0.36927276480627
C           -2.51523070182054       -1.57875682088176       -0.63674204829189
C           -1.26832447520963       -2.05897443303998       -0.24946302243511
C           -0.11972302808463       -1.38136464748272        0.16924051905472
C            0.99856678325855       -2.15615989587019        0.55932266239666
C            2.32386408237307       -1.82166844091213        0.60475199692321
C            2.97714098680841       -0.66023762613934        0.16180274366930
C            4.38441381983783       -0.71345196204494        0.16635633694679
N            5.53410500375760       -0.74378284982753        0.17095688152275
C            2.39276847822993        0.54232770582220       -0.29496541054148
N            3.21392549174156        1.49257563471621       -0.78746872603779
H            4.21059302318917        1.35153402802050       -0.77377428944714
H            2.84828292661625        2.39681088246863       -1.03618700976650
C            1.01578944257634        0.86250116918302       -0.19165076259980
C            0.68101384954892        2.21316186315688       -0.43589967574782
N            0.44013724247818        3.31519535481760       -0.65698412628842
C           -0.09283520389900        0.07046918985961        0.16479936774319
N           -1.14796544631329        0.76788493497865        0.55887439276670
C           -2.43333837950620        0.62249737447609        0.47758496055673
N           -3.19692277644174        1.45107244605744        1.21124353818151
H           -4.18900417305550        1.49586368747554        1.05071191531960
H           -2.74683697755185        2.18665442855711        1.72848493056617
H            2.99569072349023       -2.59853495528372        0.95234746457770
H            0.76429467160443       -3.18005156285705        0.82427406286785
H           -1.13258440998411       -3.12533694274514       -0.38451795860838
H           -3.15614187394330       -2.29148159859745       -1.14312855124706
