27
 energy: -46.901009585039 gnorm: 0.000688170097 xtb: 6.6.1 (8d0f1dd)
N           -2.21665405486289       -3.14383258745099       -1.46574744643038
C           -1.35940053022134       -2.51458788885302       -1.02799805279587
C           -0.30420121313706       -1.75151056626742       -0.49125126956265
C           -0.65023156567773       -0.37247098208071       -0.12972785329247
C           -1.94269774452309       -0.17193009106459        0.26504866447139
C           -2.69259994720818        1.01648535747780        0.49903963692744
N           -3.85552684748231        0.85728860045856        1.18595287246584
H           -4.20577055530472       -0.06807987854297        1.36242074164837
H           -4.51330717055134        1.61617508954329        1.22373386898579
C           -2.36941842539894        2.26949459876394        0.01533807644010
C           -1.21231137899983        2.61630710136193       -0.69027955523633
C           -0.03834186108108        1.93502516591145       -0.83025997954521
C            0.35143799912767        0.65529734274274       -0.32855642598584
C            1.71371536213395        0.45484441591304       -0.11019310693391
C            2.58233811587755        1.55058601873386       -0.25293630148402
N            3.35407280894305        2.40077436807625       -0.34407020991224
C            2.36478356225899       -0.73554386955897        0.40914350743689
N            2.03115920344863       -1.97879250700450        0.19376958986577
C            0.90587868291390       -2.38336716680478       -0.39151409868334
H            0.96193829789697       -3.40812921304631       -0.74705734547352
N            3.48710453221505       -0.54977946184271        1.13294540535890
H            4.00931483930404       -1.36623772896839        1.40163004190987
H            3.91664030806758        0.35784891934786        1.19244836109727
H            0.75195646359300        2.46208443423539       -1.35150701687815
H           -1.22927960401062        3.60485603482970       -1.13270968188184
H           -3.10521333043637        3.05080016273428        0.15363677272259
H           -2.51274702858857       -1.07914299145050        0.43778196416715
