22
 energy: -38.696221620208 gnorm: 0.000815525111 xtb: 6.6.1 (8d0f1dd)
N           -3.48527133080866       -0.29814624680792       -1.15096149737138
C           -2.37125128516946       -0.36686005959554       -0.37317299438208
N           -1.83997969396252       -1.53586486391009       -0.18382766578068
C           -0.62018886215126       -1.71571705991414        0.37470753357620
C            0.42181767109108       -0.85439855197830        0.36108671743254
C            1.75792971576078       -1.11219116402852        0.93402377483170
N            2.84496994863941       -0.95792413897564        0.30615084189334
C            3.00443009198613       -0.35407958769476       -0.89309564433938
N            2.44174345114478        0.72984592086103       -1.28889405177315
C            1.32766000125761        1.23828877429315       -0.69122603689155
C            0.36862468016893        0.54954701561538       -0.02590258585149
C           -0.85515154316928        1.19485574945867        0.51484529956457
N           -2.04778772548194        0.80764994313670        0.23905103023065
N           -0.67471709348167        2.22858791385846        1.35958050764959
H            0.23268610629461        2.64636836606082        1.46520965758554
H           -1.47905620715161        2.67693294370966        1.76351211856804
H            1.17595901884958        2.29244147718718       -0.89789774812600
H            3.83859191384352       -0.72276736825536       -1.47832402329134
H            1.82630610797682       -1.40969474147555        1.97854194280165
H           -0.46386006679771       -2.72118472385424        0.74957437410199
H           -4.07514538360522        0.50859773216098       -1.04402676461762
H           -3.91457390373402       -1.17384418805235       -1.39535402951094
