26
 energy: -41.575057520299 gnorm: 0.000474608910 xtb: 6.6.1 (8d0f1dd)
N           -3.22917524637054       -1.84896981954570       -0.90927935521026
C           -2.33892574212827       -0.94647196525051       -0.38745964161336
C           -2.80343000936494        0.33611202223751       -0.14667980900968
C           -2.07618271959963        1.45742240839234        0.28004188994365
C           -0.69646292734803        1.58441916648511        0.37669576329466
C            0.32068720891114        0.63480072546407        0.20252553594882
C            1.60075683760497        1.09697550876683       -0.12162651537497
C            2.79482023721193        0.38116671969360       -0.30340941678567
N            3.15252599715636       -0.79765835474605        0.20863090820820
C            2.30092881425461       -1.51241764321904        0.92660732365437
N            1.01293685328259       -1.57942077363191        0.90838679888315
C            0.08885883821331       -0.80018338194140        0.31577651229323
C           -1.06130794628325       -1.45026866622329       -0.07948626548196
H           -0.97032487456149       -2.53033414650511       -0.09454137257999
H            2.78044204718686       -2.23195132098799        1.58885220814852
N            3.79131478437610        0.98648241223157       -1.01037841059452
H            3.74604082538857        1.97270617938193       -1.19566382863458
H            4.69567456855975        0.54858028981293       -0.97094916132264
H            1.65589595165088        2.14764635995806       -0.38682119605665
H           -0.34757406659418        2.59850889290215        0.54466004911978
N           -2.81012739914834        2.60470178036751        0.47829320602137
H           -2.36768391197407        3.36517866776758        0.96500933840285
H           -3.80254472296827        2.51406652218663        0.61031621853781
H           -3.86134194710355        0.50198451110272       -0.31571584646913
H           -4.20867928016250       -1.62231664699089       -0.89642496748348
H           -2.99342101379008       -2.82531586870881       -0.86773889273901
