21
 energy: -39.005357262935 gnorm: 0.000884918393 xtb: 6.6.1 (8d0f1dd)
N           -2.65397730744803       -1.99392238572735        0.94070873780440
C           -1.82128857239758       -1.11072448093828        0.34967089149702
N           -2.36429510270956        0.06957203978212        0.09558132432715
C           -1.74007830233347        1.16105217821061       -0.33385882554827
N           -0.49684586214704        1.54878989226674       -0.06587760729583
C            0.45048367419643        0.69107375629170        0.21300256291805
N            1.43820627226994        0.94110651252140        1.02598225412888
C            2.65161633903036        0.45005989842647        1.07764654827393
N            3.37298761569531       -0.04476593311435        0.09572812994552
C            2.75915226710509       -0.50794046622810       -0.99057072302983
N            1.54223159190699       -0.94560148750845       -1.09754323944955
C            0.48167310200093       -0.70518567181987       -0.34731994462746
C           -0.54446912328051       -1.56977093270144       -0.06559741986713
H           -0.38743428792640       -2.63434502645420       -0.17010154119897
H            3.39183625821237       -0.67242139169890       -1.85685117405912
H            3.16390659546786        0.59422781956494        2.02386183627831
N           -2.51271424310021        2.06156581338707       -0.97211343350861
H           -3.50499748217217        1.91061999378707       -1.00083407045742
H           -2.13771428818789        2.97985622282710       -1.13096830388640
H           -3.59807982568097       -1.71080509416892        1.13164736849803
H           -2.38784640090204       -2.95421197430542        1.05847941905750
