25
 energy: -48.257397180671 gnorm: 0.000899658753 xtb: 6.6.1 (8d0f1dd)
N           -5.15041176797851       -0.68090685280143        0.15159278435243
C           -4.02582071938462       -0.48757623798011        0.03158659861942
C           -2.64171475301861       -0.26261239920192       -0.11621480450415
C           -1.92556398875922       -1.09619463853917       -1.01970643816345
N           -0.66180530489350       -1.30894134737462       -0.99794664712997
C            0.32964270543094       -0.75729822659668       -0.30993986044958
C            1.34899617342919       -1.53708664290424        0.24193959112106
C            1.07552835659379       -2.91376999438467        0.40253301272587
N            0.86700456577230       -4.03265703056231        0.54519433486025
C            2.61243169157642       -1.09036581219052        0.70750852362691
C            3.25209536839459        0.07842500260612        0.42818875938388
C            2.70445090803971        1.12414544252558       -0.38655335095473
N            1.42971475994816        1.40860435615042       -0.46526077939575
C            0.36970211133642        0.69626464713373       -0.15727508642303
C           -0.77685963439976        1.34407805110063        0.36151869871662
C           -0.53753780169533        2.63422148984538        0.89003442113278
N           -0.34707982845414        3.68118570705412        1.31837352490361
C           -2.07555824759695        0.84183270457502        0.50518164759221
H           -2.75079372066939        1.46501252351281        1.08175780303470
N            3.54438495645515        1.94086742488438       -1.03927242448765
H            4.53819026323633        1.86623766171157       -0.91806228904153
H            3.16484024812166        2.71585829197717       -1.55618583600131
H            4.26911976577858        0.20773543751738        0.76868169048825
H            3.16923398151273       -1.83152119967407        1.26845657444210
H           -2.48187002607423       -1.64189252708081       -1.77405228704900
