28
 energy: -46.613310818739 gnorm: 0.000781680423 xtb: 6.6.1 (8d0f1dd)
N           -0.14411102282206       -3.62771124027470        1.51233844768353
C           -0.34276809424499       -2.60481171060603        1.02618870084540
C           -0.59450485356191       -1.34263989068108        0.44984368328740
C           -1.90304023827802       -0.95952059237465        0.39576735238721
C           -2.45015238169460        0.24745152885784       -0.08853814915708
C           -3.84058863847477        0.27630588059865       -0.28401668498201
N           -4.97758632612677        0.32989883502462       -0.45627477909837
C           -1.74407192650344        1.44725867129615       -0.26833562931162
N           -2.44400910380901        2.53911384942387       -0.65940842158382
H           -1.99960797912906        3.43699887507572       -0.72073407805535
H           -3.43769973939277        2.47452284320985       -0.80162868608146
C           -0.37289924160263        1.65148165357728        0.01240068791754
C            0.68935988867533        0.78223838946768        0.11729109534448
C            1.94240241041443        1.36736880486483        0.49897609975987
C            3.22857448061377        1.01267376399603        0.19939524463820
N            4.24693755690786        1.81828179106005        0.63597823174613
H            4.05253223125546        2.48553887334102        1.36256170371363
H            5.18805865368866        1.47007711103884        0.58717434584150
C            3.63117048697336       -0.06143612254984       -0.66409103480282
C            2.88017810667527       -1.12624364182742       -1.02076070432070
C            1.56883111605940       -1.45027206926929       -0.59027250690941
C            0.59897239084636       -0.65550511779629       -0.04982017256270
H            1.29935577044458       -2.49002782608228       -0.73401080835476
H            3.35391006216333       -1.87629502421781       -1.64158866704754
H            4.65477284817983       -0.01403948943626       -1.01228762008512
H            1.84097908121566        2.28154468646141        1.07549413089126
H           -0.10490136625345        2.70119758211061        0.07757294624495
H           -2.63013050821499       -1.68922989679949        0.73718353745004
