26
 energy: -47.181596492947 gnorm: 0.000722963563 xtb: 6.6.1 (8d0f1dd)
N           -1.06902814625363       -3.02488035084094       -0.93573837263378
C           -1.07380026772034       -1.93497297422474       -0.56790612779273
C           -1.16731522847752       -0.57391893595338       -0.22152673879766
C           -2.51089905112513       -0.02458540080347       -0.20352152963124
N           -2.92145835101352        0.98490508635078        0.51277839484139
C           -2.17804764936130        1.90913215287730        1.12230376281776
C           -0.90142147642168        2.30579727016019        0.85391311393499
C            0.03110875417863        1.61787819268849        0.02052989390731
N            0.92253257736690        2.29948920644259       -0.61783282134261
C            2.06643925710847        1.95967706072729       -1.18726506899027
C            2.91023782868015        0.96105084848255       -0.78650347039872
C            2.54160163760156       -0.12473150540521        0.04894463438612
N            3.54535616818054       -0.89653730295247        0.52930557730001
H            4.49210557635681       -0.71523837672565        0.24831177156731
H            3.33665922547065       -1.76141574509883        0.99998822811222
C            1.21793739023872       -0.52235380939313        0.30571172661608
C            1.06299289665570       -1.70869630498978        1.05086218946870
N            0.99597885430572       -2.65064071802860        1.70741588537642
C           -0.00815030475006        0.14952240698302       -0.01142524634273
H            3.93409481630444        0.97846861906983       -1.13321598667102
H            2.39659135152627        2.65989461545134       -1.94626761931619
H           -0.55084141860246        3.24079969258298        1.26753670299582
H           -2.75574656578634        2.49483144962968        1.83015007221014
N           -3.45623430763035       -0.67915206069824       -0.90759843813815
H           -3.25669605884857       -1.57371029762369       -1.32250232525766
H           -4.41147735328383       -0.38693486730783       -0.79236597802264
