28
 energy: -45.011813010073 gnorm: 0.000695601662 xtb: 6.6.1 (8d0f1dd)
N           -4.01488245110487       -0.38708107798402        1.23135776225079
C           -2.78685003120528       -0.37376275523860        0.61447649661427
N           -2.02404008116771       -1.38608195966460        0.85887890466790
C           -0.81406547186727       -1.58286417379045        0.26348687426926
C            0.08602257689668       -0.66240407333337       -0.13355197863216
C            1.38852528361896       -1.06701808607960       -0.71674460658944
N            2.54927139955813       -0.70244528585334       -0.31946100663591
C            2.82955913402261        0.28277962897900        0.57613653455681
N            4.08985206649920        0.14172861429390        1.13655822433428
H            4.25006973190238        0.64172296923454        1.99538232761003
H            4.44736033348801       -0.79984249307706        1.11782547887375
C            2.11185554382912        1.43135049109877        0.75676815897496
C            0.81554279085554        1.69276165170181        0.23941016098453
C           -0.11413676846407        0.78265679186658       -0.14552839166809
C           -1.40097360488384        1.21845192403243       -0.71202410134241
N           -1.33783839180946        2.27739535734253       -1.58235059679784
H           -2.13800791891622        2.45893643418328       -2.16597599341219
H           -0.43749689592458        2.49574452792251       -1.97470172446581
C           -2.59225924240128        0.68951881970290       -0.34733708189383
H           -3.49632331950228        1.12864853097328       -0.75273819598185
H            0.51521383836754        2.73457445191501        0.23297619244111
H            2.58488889013747        2.23011612784192        1.31254474118624
N            1.30821018265162       -1.87236631149035       -1.80852786183644
H            0.46400861191014       -2.39545783581359       -1.96107911757737
H            2.16856271749571       -2.22468596941657       -2.19345240119553
H           -0.54031907595408       -2.63419545818402        0.23106124542467
H           -4.10049500784037       -1.04425421801744        1.98961674416625
H           -4.49320073089104        0.49058372855311        1.34381874157493
