26
 energy: -47.195174312302 gnorm: 0.000969138218 xtb: 6.6.1 (8d0f1dd)
N           -5.34997420665749       -0.82880119506492        0.26185326325112
C           -4.21471707089263       -0.69824592920843        0.14761344877082
C           -2.81827699096677       -0.55375645696019        0.00163251631754
C           -2.15899003703359       -1.60171441710238       -0.69978507171999
C           -0.83055592107624       -1.84114878680728       -0.81076155844290
C            0.28602596925620       -1.08893559116254       -0.31040375869254
C            0.21166038847586        0.35132808563649       -0.09450786233021
N            1.23574402879266        1.12966417048168       -0.40585142074917
C            2.52054820734136        0.89491727886121       -0.46063780233251
N            3.21170440326565       -0.05310631618461        0.20083431517879
C            2.70013992434471       -1.24180532108751        0.42771139842438
C            1.45183006288185       -1.76568816896877       -0.04344606653894
H            1.40800707806901       -2.84660138004281       -0.10924723327768
N            3.50864763773610       -2.09795193493461        1.08143895196611
H            3.22653286863055       -3.04059696242845        1.27750636243260
H            4.39926148636936       -1.76207954022339        1.40310702419554
N            3.26859609558355        1.77426777202517       -1.15196691671838
H            4.26515441998044        1.74929027312739       -1.02778091104363
H            2.82855915306829        2.61180339457492       -1.49185883630402
C           -0.92050714027161        1.01788535818178        0.42030478862023
C           -0.66575866706342        2.33126574212562        0.88016727783869
N           -0.48130076110867        3.39324426176069        1.27448568763989
C           -2.24503843537134        0.58332758628496        0.53377802299958
H           -2.91633451175515        1.27318954735085        1.03433270207778
H           -0.54791276309093       -2.75982358226216       -1.31208349025238
H           -2.82420500600785       -2.33537872657154       -1.14097408471129
