28
 energy: -45.806947667874 gnorm: 0.000401140242 xtb: 6.6.1 (8d0f1dd)
N           -3.82915320939126       -1.40596638362942        1.77393674125330
C           -3.00728493642185       -0.92074647787999        1.13001274198629
C           -2.01249975023714       -0.31109264862910        0.34837250362709
C           -0.84058468091143       -1.12074008134658        0.06521424404495
C            0.39656815037917       -0.66872577211285       -0.17687092742569
C            1.49483805904104       -1.60434677896378       -0.54927332407058
N            2.59850658798624       -1.73637785687447        0.08418897543136
C            3.06629910603050       -0.89545762854741        1.03141808603756
C            2.87639832763971        0.44309025078250        1.09749775687980
C            1.96400318616017        1.21451530888221        0.30118581119928
N            2.27667892225408        2.56380124565215        0.16069440455230
H            1.49917397705247        3.18779771713550        0.01495316555449
H            2.95311646487867        2.91165547449244        0.82173066282147
C            0.81513022713397        0.72547734739477       -0.26079787093541
C           -0.02741765662720        1.56759978902951       -1.10330665389090
C           -1.36439413276861        1.64013396366169       -1.06807833622035
C           -2.26291222773709        0.93418882133786       -0.17342644197125
N           -3.47824879687702        1.53338340510317        0.01847167591221
H           -3.57087799469694        2.51533714147703       -0.17370929124442
H           -4.09725946947034        1.13865020089707        0.70744591272853
H           -1.86264752805018        2.33148764348260       -1.73781971271141
H            0.49627839817530        2.19166209849475       -1.82089989365566
H            3.50177885138307        1.00659564993031        1.77877968582461
H            3.77688881577682       -1.36635211672810        1.69980216320398
N            1.28510826239921       -2.33248344560836       -1.67297856868087
H            1.99088066432202       -2.99639097857987       -1.94238545115341
H            0.35030706424699       -2.45174264049226       -2.02013472029787
H           -1.00593082686934       -2.19130026016097        0.10920019390096
