26
 energy: -47.188992539195 gnorm: 0.000905428806 xtb: 6.6.1 (8d0f1dd)
N           -5.04965911069791       -0.10987043405783        0.81141909435642
C           -3.90813796670928       -0.10413750770383        0.66703213413623
C           -2.52407026495099       -0.04650283197001        0.46501307490144
C           -1.99924961032386        0.93895758234684       -0.44126948268347
N           -0.78030848516555        1.41077596554945       -0.39723246515847
C            0.37029314767930        0.93325113678843        0.04306773280680
C            1.38980248920663        1.81172341883380        0.37216464088301
C            2.76591767096425        1.56481268123741        0.38520951364307
C            3.41451653646959        0.43876246094446       -0.16522848582439
C            2.86982807933714       -0.73298073288319       -0.63021075776176
C            1.56831281283246       -1.22271138358306       -0.48477786022121
C            1.33491498782981       -2.55886267331658       -0.86895470341818
N            1.15054045526130       -3.63829256744795       -1.21446982196052
C            0.48675705577682       -0.53592244231233        0.10892132776356
N           -0.43331136229958       -1.19189023948949        0.76183754424227
C           -1.66357419393788       -0.92715144344910        1.11163125162275
H           -2.04895614351418       -1.55678794919343        1.90624700909485
H            3.56409187819195       -1.43113207260546       -1.08350685025306
H            4.49043961555796        0.52877865930204       -0.24918769161067
N            3.56582206582545        2.55314747126150        0.86030707117271
H            4.56262386434924        2.49369834049514        0.75514864113464
H            3.16737263826787        3.42512799339888        1.15819520187227
H            1.07933607494439        2.83111383222048        0.56570198667861
N           -2.83954599701317        1.51590027112192       -1.32577342335779
H           -3.82400254398902        1.31601689568810       -1.28532456328989
H           -2.50886355988202        2.28555638222989       -1.88036976455687
