23
 energy: -44.787100198945 gnorm: 0.000722993756 xtb: 6.6.1 (8d0f1dd)
N           -4.45712751196907       -0.10816299060840       -0.04207181889073
C           -3.35467835893355        0.18690551991621        0.07050437265086
C           -2.00628073199020        0.58428673883586        0.21178710600175
C           -1.78033094524770        1.82960500321430        0.90541435522127
N           -0.82394044944867        2.65109009659839        0.69820598217101
C            0.20250119700757        2.47441564773498       -0.14880496348562
C            0.86133726687492        1.30790961642366       -0.39687393322449
C            2.02713142812986        1.33568967877598       -1.19593291213207
N            2.93144390120512        1.35310125730876       -1.90071847605791
C            0.40593898945239       -0.02420480256165        0.02064280421000
C            1.31950865911052       -0.95260479606326        0.44663181416230
C            2.63907775052119       -0.54363645230669        0.75455918595784
N            3.70208323335799       -0.25275003068844        1.06936841230082
C            1.00084123017641       -2.32845527036294        0.76684838064186
N            0.15587414379207       -3.06458429068535        0.16214610306118
C           -0.70796943135401       -2.68582328718939       -0.80233904877365
C           -1.35757436838927       -1.50177847847014       -0.89213153903266
C           -1.01496443649841       -0.29463499091596       -0.17039568787616
H           -2.21185682372636       -1.42600619421431       -1.55317859036593
H           -1.00067994735082       -3.50330080620487       -1.44989410364761
H            1.58364556694564       -2.80328505706917        1.54932977005896
H            0.59523800887711        3.39776038446739       -0.55876345072802
H           -2.52602425454279        2.13660154356580        1.63149851617613
