23
 energy: -44.023703535944 gnorm: 0.000963094116 xtb: 6.6.1 (8d0f1dd)
N           -0.55554372239564       -3.07856591973138       -1.71242198707629
C           -0.86573487368183       -2.14546609839902       -1.12131846499545
C           -1.27387958212926       -0.97795719476335       -0.43537365517578
C           -2.64156932564190       -0.82681320018383       -0.22593216628007
C           -3.28761766398335        0.13185855959613        0.55015585222382
C           -2.66553662807345        1.24163982295083        1.10244836471111
N           -1.57271416120372        1.80578012618546        0.65218628694497
C           -0.61825912704021        1.37105770082324       -0.10434273291113
N            0.03469994245560        2.19256144894294       -0.92265551218822
C            1.30235388173991        2.18668653978986       -1.16880498803949
N            2.27921475450421        1.64034587205356       -0.46114698953537
C            2.16657522325279        0.54337847776171        0.25666274355400
N            3.22343721667428        0.21763465742448        1.01390998010744
H            3.28492590909181       -0.68755478678696        1.45078429594292
H            4.03204142573707        0.81607953037835        0.98424411440667
C            1.07007195178913       -0.40668982016570        0.18380811959255
C            1.37555004989847       -1.73228233407350        0.54813750523891
N            1.68410632123298       -2.77810842222045        0.91105839776952
C           -0.23968973449825       -0.05587513951401       -0.10256334258743
H            1.63134652083156        2.81496463831217       -1.99015336809299
H           -3.14911946616847        1.78457632043823        1.90587572546926
H           -4.32657943876158       -0.03956785798710        0.79049350715482
H           -3.25388827833002       -1.63644129863170       -0.60569534563375
