26
 energy: -41.574490238412 gnorm: 0.000910998782 xtb: 6.6.1 (8d0f1dd)
N            3.42428722000874        0.32312488954270        1.23649307846937
C            2.31587411555706        0.08788988221132        0.47148031042930
N            1.82926686259182       -1.10984193603368        0.47505958376633
C            0.63713111700799       -1.47203012475087       -0.07608576198505
N            0.55772441293850       -2.84348545168124       -0.26623577430763
H           -0.12907296810042       -3.17225604567485       -0.92402100244816
H            1.45447249772333       -3.29926737985068       -0.30862427740695
C           -0.46756764814064       -0.67923000006049       -0.24766110339828
C           -1.71330607896851       -1.19364512806912       -0.82165298856335
C           -2.94587416991457       -0.93539179785187       -0.37355687624301
C           -3.30218800721612       -0.09538042561273        0.75161425788572
C           -2.62731727170235        0.98253985024298        1.17579895181218
C           -1.40677022090489        1.49199641167613        0.59499206486379
C           -0.45811306475043        0.75849997640241       -0.00783828802965
C            0.72927078848899        1.38217415529941       -0.64290876399083
N            1.94762278561538        1.13315505368524       -0.31737825167489
N            0.48132322406911        2.23362500355566       -1.66182826239198
H           -0.44955134662148        2.57406834643285       -1.81528044109851
H            1.25454883596019        2.66195320787127       -2.13981052444792
H           -1.24477334079075        2.55935121032064        0.69737697498306
H           -3.04789525113820        1.58154520191571        1.97439134927827
H           -4.24611908831397       -0.33628659223490        1.22522367519336
H           -3.78522018410636       -1.40516952207697       -0.87374047470329
H           -1.61035327033999       -1.83427916042958       -1.69512427618962
H            3.99335516790136        1.10892723003245        0.97257694729563
H            3.89504604234443       -0.49467262614392        1.58499034785446
