30
 energy: -54.874704879199 gnorm: 0.000554948226 xtb: 6.6.1 (8d0f1dd)
N           -0.56984908532149       -3.68068247822294        1.87835075337091
C           -0.73762144072153       -2.68666239569945        1.32612681983431
C           -0.95678291715881       -1.46297810047011        0.65708861665406
C           -2.27111305851525       -1.07317203171910        0.57755900738239
C           -2.82855396601423        0.04716898795408       -0.05066190736682
C           -4.23021837100876        0.06597160561769       -0.16981299442351
N           -5.37464740066764        0.10036090499741       -0.28140949776151
C           -2.12415324907301        1.18638005960018       -0.49569533395192
N           -2.83774222555371        2.17615480812887       -1.08158265005907
H           -3.84092979430914        2.10972201216712       -1.12872996793747
H           -2.40414682722323        3.06061024068951       -1.27967105542017
C           -0.75087647359695        1.42737678108729       -0.31189151305674
C            0.31331448713168        0.60980036609211        0.02212376993434
C            1.54734847473071        1.27505185197129        0.33048707018335
C            1.44506494684179        2.61257412451229        0.74644369021966
N            1.40306486035168        3.71119293893668        1.09142390562189
C            2.86169580431271        0.76961294304569        0.28251975067949
N            3.29650975407646       -0.31974333985974       -0.35660601379010
C            2.57695112290857       -1.36771049556006       -0.67292491264162
N            3.20857105723978       -2.29419967546641       -1.42002533607455
H            2.78245970532900       -3.18209850645743       -1.61386323775488
H            4.17011974000097       -2.13865916452571       -1.66725391844948
C            1.25605886372996       -1.68559025328392       -0.23232655525034
C            0.24008980786436       -0.83992011096438        0.12309880257828
H            1.03001012735395       -2.74493883427783       -0.22419485896096
N            3.85874007771752        1.49888137377926        0.82652386854440
H            4.80373810958226        1.19656376822521        0.66845657037135
H            3.67948969449936        2.40823472303396        1.21647585315307
H           -0.47626776507186        2.46043982784351       -0.49837298744114
H           -2.98932302313231       -1.76000072497971        1.01371589451227
