30
 energy: -49.251066817669 gnorm: 0.000825207219 xtb: 6.6.1 (8d0f1dd)
N           -4.32051762506298       -0.74689716866524       -0.99730658518578
C           -3.26308762267629       -0.51988562220029       -0.59981272532074
C           -1.98563449792671       -0.22118037876759       -0.10820290830752
C           -0.94576571730474       -1.07759747158746       -0.37380243390598
N           -1.11742343257261       -2.17042341047865       -1.14931175523706
H           -0.34196221229474       -2.78512180986897       -1.32074263785586
H           -1.99904383841635       -2.34349123720954       -1.60290974935904
C            0.39969248885566       -0.88441766015013        0.18657202210072
C            1.02565636627854       -1.89980751701391        0.81806947034729
C            2.36228855808050       -1.89647697174274        1.32999979763451
C            3.39565532277136       -1.16855479243870        0.85246413395228
C            3.37479668092358       -0.26621040681290       -0.25392532055897
C            2.30015770393428        0.40352896141779       -0.73529996821119
N            2.34407077753178        1.08027978361737       -1.93028445413079
H            3.24720422865729        1.20218423662995       -2.35984162317880
H            1.69923074491708        1.84828269055108       -2.03255084764183
C            0.98214076447228        0.43073580462882       -0.06703231086967
C            0.35643261689722        1.60324592906223        0.20370426455558
N           -0.85858517921595        1.77605486178155        0.80680026582765
C           -1.86923307482608        0.98626339650124        0.71377882618213
N           -2.97955759875112        1.31679094514210        1.43229139604880
H           -2.98993502834249        2.23253691676340        1.84834153744158
H           -3.86180455892586        0.90160163604247        1.18513454140256
N            0.98089543462084        2.83160560461721       -0.08268125686745
H            0.48383359234814        3.58765942840045        0.36985858704591
H            1.96522244097778        2.84594361359304        0.15255892986466
H            4.32358991501786       -0.11529529599905       -0.75658381914732
H            4.37496696478516       -1.34993532989064        1.27931413676777
H            2.56396543929271       -2.61732377941982        2.11190569109969
H            0.45869329865377       -2.80703135770286        0.99725711550702
