32
 energy: -53.479466428355 gnorm: 0.000444504568 xtb: 6.6.1 (8d0f1dd)
N            2.90716233049511        3.08480438967647        1.80589335230227
C            2.35964145630299        2.24502148555685        1.23901598704615
C            1.71068841624803        1.21698025060329        0.53831248911307
C            0.39988424852369        1.54415871587566       -0.00158012730840
C           -0.61234564421239        0.70821633123478       -0.27152051766898
C           -1.78042903915741        1.24440496604390       -1.00008968229024
N           -1.47247043441654        2.11881908064869       -2.01159691461132
H           -2.19669181382326        2.34696086452449       -2.67257961901172
H           -0.53146181457494        2.10935825809347       -2.36662287747066
C           -3.07182228971319        1.00634229050069       -0.68052427224722
C           -3.56240944197780        0.15020626631281        0.35936686333684
N           -4.86137414710127        0.39016138977869        0.74585808835037
H           -5.18794512179574       -0.07492058624443        1.57631064365225
H           -5.22480336147885        1.31645292444176        0.59823501838758
C           -2.91083126344352       -0.93949890084313        0.86102504506512
C           -1.64811656330518       -1.46484642242946        0.46301095066327
N           -1.48138253321649       -2.81632377096255        0.69839333372942
H           -0.54878113843690       -3.16315408711777        0.84404349081917
H           -2.19118859858937       -3.26519185355188        1.25226516172227
C           -0.59207052100638       -0.75018607647009       -0.06901383507538
C            0.56081445946276       -1.44871169013226       -0.54066719595109
C            1.86877833496188       -1.06318509411546       -0.47737531303715
C            2.82016591208836       -1.91890985081185       -1.06184273093106
N            3.60676765217939       -2.61229281652217       -1.53679310956923
C            2.41092433987870        0.06797324407721        0.27966612688121
N            3.67634497391699       -0.10404707682974        0.75615401251774
H            4.24293675782381       -0.85056727203398        0.39061880117900
H            4.14303222840794        0.68311479392317        1.17535428371780
H            0.37633577649868       -2.41727483802510       -1.00055950948193
H           -3.46156683329836       -1.54574154221397        1.57166850144456
H           -3.83286244321506        1.53977031662545       -1.23718852625927
H            0.25115562967082        2.60242023568425       -0.18212512551488
