29
 energy: -51.133236437736 gnorm: 0.000554230882 xtb: 6.6.1 (8d0f1dd)
N           -5.41921191126689       -0.96563342453068       -0.61564316864905
C           -4.30662980142051       -0.81303824578522       -0.37688381479666
C           -2.93552923419524       -0.65108796873639       -0.08370750444156
C           -2.28729705058264        0.42888722915119       -0.61764827202033
C           -0.95090034821231        0.83427124702640       -0.38389141061664
C           -0.66197060592577        2.13009762731506       -0.87933799191470
N           -0.45582317261990        3.14577952871519       -1.37289985324455
C            0.12780913827205        0.11323490059021        0.12326649344769
C            0.10531118642949       -1.31942137181820        0.34745286165099
C            1.13758398789239       -2.15917058131905        0.08379196370469
C            2.43245070997705       -1.87421392166795       -0.46251796102409
C            3.09890079410037       -0.68010955879293       -0.34922334449491
C            2.64492476734932        0.50474999018819        0.27904644707999
C            1.30603387670229        0.85086227117248        0.49254023972382
C            1.06875317960306        2.09074896634657        1.11601793701220
N            0.92394186458905        3.06822361870279        1.70572113148430
N            3.59578896279779        1.40221883592607        0.62925318838299
H            4.55663209761150        1.24365345285186        0.38645366300803
H            3.32702412602830        2.30856334338927        0.97410395328017
H            4.12632098308182       -0.66092094377054       -0.69158629662655
N            3.08120179893570       -2.94093244940302       -1.00343051577857
H            3.95503425612619       -2.80079272542785       -1.47846779848926
H            2.57023704979969       -3.78076677413842       -1.20757638130234
H            0.95253855374958       -3.21311333867175        0.25638779543208
C           -1.06627350272507       -1.88787059838164        1.00400103630993
C           -2.36704016077518       -1.61124586149404        0.81970023110607
H           -3.08926169239938       -2.19559640808845        1.37700781048484
H           -0.82111071102080       -2.66044451519017        1.72334790231112
H           -2.87370604340152        1.10594902094096       -1.22872542411959
