25
 energy: -47.468982668013 gnorm: 0.000732747129 xtb: 6.6.1 (8d0f1dd)
N           -0.27740713368874       -4.10211032298234       -0.75817796443360
C           -0.52668080117364       -2.99916501110995       -0.56149628488710
C           -0.84761029142354       -1.64069883515673       -0.35559347438213
C           -2.09650881985982       -1.19987879737261       -0.80895758633487
N           -2.76193115179649       -0.12603635659849       -0.49286607745491
C           -2.32466759394372        0.96204750345421        0.14253931322226
N           -3.30879901560701        1.74804207769727        0.62079229808010
H           -4.26000011290024        1.47753568549597        0.43873312092285
H           -3.10502198749885        2.66208981335287        0.98776230715053
C           -0.98546827701636        1.41724469657733        0.22179645912144
C           -0.79923270431467        2.78508344210722        0.47593816170567
N           -0.67784158694630        3.91029145851078        0.68719399026047
C            0.17557523030373        0.61352730208987        0.09583653223484
C            1.39483259802740        1.18573324722064       -0.24194607023603
C            2.67837141508103        0.58776726718103       -0.25546404524260
N            3.11595630231064       -0.40441459465264        0.52504951503409
C            2.29593882994642       -1.12467059407073        1.25368785481462
N            1.05802403097990       -1.42396330291464        0.99970379810426
C            0.13686787774300       -0.84223249127402        0.27112577154254
H            2.74029654030182       -1.64182982931112        2.09744559595430
N            3.63416215560084        1.15875653847173       -1.01299812485923
H            4.57027452792074        0.79982721118166       -0.94065690725081
H            3.46359660746426        2.01336962817476       -1.51191496392628
H            1.34949697865377        2.20148971646379       -0.61742885680356
H           -2.66222357956193       -1.89256153263674       -1.42598726803692
