26
 energy: -42.364827239329 gnorm: 0.000463224903 xtb: 6.6.1 (8d0f1dd)
N            3.67907246645324        1.77095800265183       -1.32872065186355
C            2.82775490756511        1.14989509060648       -0.86703662522734
C            1.80833478620603        0.37608379803219       -0.28751856950778
C            2.11093343290095       -0.93459800321509        0.05434656537018
N            1.39620473165031       -1.62732810969016        0.97502988853820
C            0.13943329092806       -1.61323387414520        1.13270676073613
C           -0.86248660186824       -0.98296553382010        0.25123348693318
C           -1.86305585986105       -1.67712184667710       -0.31909863057197
C           -2.93811059192760       -1.13373668670080       -1.09112116871835
C           -3.44598438103888        0.11172656225229       -0.95797069597724
C           -3.02892095056145        1.12650728562076       -0.04610301921755
C           -1.81199389647508        1.28259351996368        0.53333814653729
N           -1.57449790587796        2.32376091699304        1.39971225504007
H           -2.36856849623290        2.75807804229256        1.84028497855505
H           -0.72717176774307        2.29679176921148        1.94126943520707
C           -0.63874621672142        0.45517974220247        0.20495494015351
C            0.56684720189435        1.03710666286620       -0.01223256049229
H            0.59875780147318        2.11816866713993       -0.06987334799898
H           -3.77064241033296        1.88453141456591        0.17758777791461
H           -4.33093573020804        0.35424661799721       -1.53345160877536
H           -3.43386993116323       -1.82150355171525       -1.76285815937720
H           -1.84776962233007       -2.75537527386538       -0.21115349768535
H           -0.22851986637999       -2.09405139405792        2.03642092176968
N            3.25110666815936       -1.55033700096234       -0.37566916407467
H            3.54214485014580       -2.36907009743097        0.13096016389886
H            3.97259560534524       -0.97704123521561       -0.78180572246590
