25
 energy: -42.658964528437 gnorm: 0.000685344493 xtb: 6.6.1 (8d0f1dd)
N           -1.01028508228215       -3.64243927892438       -0.70549850120053
C           -1.06294907089947       -2.51511650664886       -0.49146743677107
C           -1.15362098003397       -1.12363042032692       -0.27603462442160
C           -2.39550546137396       -0.53707834316727       -0.59770991810971
C           -2.85465984382223        0.71050020967169       -0.30737652337039
C           -2.13572533349081        1.80376479517694        0.25480764473346
C           -0.76605259164693        1.89602064221218        0.41132700178175
C            0.23574021699123        0.92240975628131        0.22054905627192
C           -0.02060227786763       -0.51275890355166        0.27599196252395
N            0.84316209057308       -1.29061078179926        0.91956534918270
C            2.12764980552022       -1.26030155642487        1.03436448829213
N            3.01579592496298       -0.59730201618860        0.31422379344858
C            2.70423195208036        0.57019430098446       -0.24586404487631
C            1.53143797683390        1.34145973890743       -0.06960707207909
H            1.63788906248023        2.39398912796505       -0.30774987025898
N            3.71430063482552        1.12131733545810       -0.95742912677429
H            4.58674784408905        0.62416769083456       -0.99013007289213
H            3.66691149164129        2.06899971874530       -1.28363551709922
H            2.54649889794654       -1.95139761887675        1.76040344922240
H           -0.39449936067549        2.88126569608112        0.67358081470297
N           -2.88590097711090        2.89249199902111        0.58448399785605
H           -3.85765324888006        2.92672253675801        0.33611976002320
H           -2.43732732697990        3.74723635021499        0.86069196650596
H           -3.89300156698748        0.91558026278837       -0.53595492530533
H           -3.10409801319292       -1.21829050269140       -1.05479936318762
