22
 energy: -34.686343487743 gnorm: 0.000613923567 xtb: 6.6.1 (8d0f1dd)
N           -3.32952639695604       -1.32456345853828       -0.67693059080576
C           -2.29316559214573       -0.56686931999393       -0.21544328353732
C           -2.65853588437075        0.70758192812019        0.32641513471365
C           -1.84591002061151        1.75856298390492        0.60863023852511
C           -0.46523730177524        1.89368081515740        0.35193894247186
C            0.44620783350928        0.91528356278957        0.05684981717911
C            1.71048923189310        1.26142511561937       -0.54208766281436
C            2.86488191009072        0.54139171154979       -0.61731075837851
N            3.25561349295462       -0.53813239411803        0.09184087232669
C            2.40247143995793       -1.22214375355910        0.79459878831572
N            1.09775926593831       -1.33108596159195        0.64160765661457
C            0.19510435645276       -0.52174925762317        0.16705507738141
C           -1.02781054288650       -1.10213467998150       -0.25343279334207
H           -0.94586404974822       -2.14404112961553       -0.53932274536153
H            2.82617022863343       -1.91080866312866        1.52119878698596
H            3.66662523452034        0.94389973637333       -1.22899753321762
H            1.69404293704092        2.20385345740699       -1.07817758910166
H           -0.08646966871699        2.90872081439136        0.37709442006123
H           -2.33123118851590        2.65063623643456        0.98660840794483
H           -3.72049265700204        0.84334897701783        0.49105242332697
H           -4.27214519276574       -1.05990915553332       -0.45179933398413
H           -3.16355708249725       -2.28701539798216       -0.91335353830372
