30
 energy: -54.842616738018 gnorm: 0.000695458335 xtb: 6.6.1 (8d0f1dd)
N           -4.10150205285335       -2.33482561187865       -1.68846716945865
C           -3.24155243653841       -1.79072774733820       -1.15687288292824
C           -2.18885980411503       -1.10705341350362       -0.50582986686003
C           -1.00474682621573       -1.75965403381085       -0.39189390812369
C            0.21007868546954       -1.26820670603669        0.19561497942314
C            1.04116156759866       -2.15415019028073        0.81500755699646
N            2.12560215801967       -1.88032178482456        1.57004135611524
C            2.99043209632859       -0.96822969459557        1.34643676384995
C            3.06637611464128       -0.12483654568178        0.17630872215893
C            4.33785375868630        0.28524493651285       -0.25761607744796
N            5.36582041080973        0.65002561106431       -0.62239883023561
C            1.95471230395191        0.32063715998436       -0.50680538393004
N            2.07249278081914        0.97846036942710       -1.67785880169927
H            1.27610508332269        1.44545875499615       -2.07467306758724
H            2.98447719016982        1.13650196759385       -2.07586189478994
C            0.57710321296822        0.14185618628646        0.00727742599309
C           -0.23895907415720        1.21635426619105        0.13273936107308
N            0.24005524403758        2.50437410352972       -0.09478268257313
H           -0.34654174212759        3.24289025957019        0.26623570938854
H            1.21822798963277        2.65052546614717        0.10602013847684
C           -1.66191201159190        1.15440985298818        0.46063906903637
C           -2.19271481550403        2.29958689395268        1.07983374098644
N           -2.62624579641492        3.23478690675469        1.59290861420087
C           -2.55363000023528        0.16409511012227        0.11893145961941
N           -3.87447462898188        0.31922051938985        0.37574349709767
H           -4.53670284658651       -0.38562039746895        0.10301833638117
H           -4.20635012560880        1.16972530860402        0.79759211823668
H            3.80098489136827       -0.89470299697163        2.06415656703853
H            0.74820306104044       -3.19701295319339        0.86356315305529
H           -0.97403581633581       -2.78000682234756       -0.76031995538634
