30
 energy: -54.083597653454 gnorm: 0.000973327890 xtb: 6.6.1 (8d0f1dd)
N           -0.21236109176178       -3.99782578973752       -0.51133735909516
C           -0.44942366300412       -2.87985929889893       -0.37123446848330
C           -0.79942048330678       -1.52625593150044       -0.23484502087601
C           -2.15303226682162       -1.18862037946795       -0.53515868821576
N           -2.83378758015728       -0.14337504052389       -0.12286989234089
C           -2.36770103971206        0.96725998050044        0.44284280220499
N           -3.33237219205865        1.70586154636958        1.04396133461591
H           -4.28545633782248        1.41242311845062        0.92295055719660
H           -3.13390460692159        2.64651983655079        1.33912294415100
C           -1.05981245393170        1.48927792435602        0.38775212470963
C           -0.92607716096727        2.84419778966570        0.71949327765038
N           -0.84880678677695        3.96166885015857        0.99364432960213
C            0.13910651370081        0.79525551113008        0.03238771175661
C            1.21634410900564        1.52554630635162       -0.42129809486826
C            2.55925541025957        1.14203942279437       -0.66996603566383
N            3.28831038165330        2.00256942855065       -1.43751471836431
H            4.28669157173235        1.89543575815122       -1.47523531049533
H            2.91495492811418        2.91422359376821       -1.63539434266178
C            3.20067668687236        0.03548919756877       -0.14054986219873
C            2.57317036246433       -0.91708818947397        0.68611480621809
N            1.30372420187806       -1.24031527113368        0.66296512386979
C            0.23313474603457       -0.65927246602396        0.16077100502931
N            3.33705475780921       -1.64376700016249        1.54505935240534
H            4.33421696725071       -1.65463562428130        1.42540278707275
H            2.90475132395664       -2.44734830772566        1.96857057756421
H            4.27015560866888       -0.04760116685990       -0.28084175013475
H            1.00049406792955        2.56066573841267       -0.66191007457950
N           -2.87378570803337       -2.08338588558324       -1.24940512921507
H           -3.86475957068979       -1.93434315783666       -1.32302579015715
H           -2.49208882246140       -2.99409476016559       -1.44150222939656
