29
 energy: -51.125390924501 gnorm: 0.000620936432 xtb: 6.6.1 (8d0f1dd)
N           -3.80931838389902       -3.17931774949536       -1.34539518724850
C           -3.09170657327679       -2.39213799170045       -0.92122383343719
C           -2.21064653288872       -1.41108323037795       -0.40212438624251
C           -2.81521173808444       -0.47005672323651        0.51745048520033
C           -2.34688754231891        0.76969674851355        0.78410009761281
C           -3.10121819033528        1.59629252353970        1.65283261299241
N           -3.70347972244725        2.28190658932598        2.34684189538755
C           -1.19303503491711        1.40815574333139        0.18035332959435
C           -0.08698974685040        0.81288431816242       -0.30488428544831
C            0.91820345948610        1.65809729262768       -0.97812432518748
N            0.39957103204988        2.59887582455371       -1.82292812669550
H           -0.55779170733989        2.50834014848070       -2.11550979798475
H            1.02241307850967        3.08067852772540       -2.44894166223877
C            2.25299197384097        1.62422720385563       -0.73703229082680
C            2.98958392387183        0.72783317615271        0.09677848959658
N            4.23506499873457        1.13827940321723        0.45717800370589
H            4.50725813228143        2.09556914127650        0.32818319253918
H            4.78819059373128        0.55881231959292        1.06524130949720
C            2.58472130263023       -0.56371202037418        0.40489968308355
C            3.49126954870655       -1.38364834970518        1.10010435589546
N            4.23978340691721       -2.03998666999533        1.67698731654651
C            1.37393395851131       -1.19414607324894       -0.01633929274619
C            0.18065903447701       -0.62601601011819       -0.31237671031438
C           -0.90711896380486       -1.48401118349552       -0.75883903455903
H           -0.61951478446643       -2.29652912629877       -1.41822851268360
H            1.40777474755154       -2.27777890714222       -0.00926003483783
H            2.84869472010254        2.39823227935811       -1.20728311392524
H           -1.23552416066059        2.49057366900038        0.16983111976632
H           -3.74580845891275       -0.78653155112270        0.97193572746379
