28
 energy: -55.455692197408 gnorm: 0.000323451162 xtb: 6.6.1 (8d0f1dd)
N           -0.57417211014630       -3.86931493358619        1.56445509099675
C           -0.15325041341299       -2.87978713007060        1.16435903528103
C            0.36218863699284       -1.65222470294824        0.69303224327702
C            1.73303131649941       -1.45770325388302        0.77365573831649
C            2.52036692359406       -0.45650243444540        0.21401416282488
C            3.91310203054166       -0.67090374653201        0.30833081280410
N            5.04865661949723       -0.83081572557332        0.38031971466687
C            2.12452833743978        0.74855606106899       -0.43646261103653
N            3.09107261444486        1.46821554968987       -1.04462845976648
H            2.87784706260198        2.38003024779945       -1.41447250254808
H            4.05363416818118        1.18202319620109       -0.97244972881929
C            0.82553595795941        1.29478659586644       -0.40402719044171
C            0.68366360462324        2.63205933666794       -0.83047442309198
N            0.59181312364208        3.71544334951896       -1.20196788830183
C           -0.35632047655689        0.69331299246786        0.07425399475204
N           -1.32702864054584        1.45956195415353        0.50376262147350
C           -2.61685828471307        1.20440229161255        0.68240505815704
N           -3.37905373713914        0.39338244356164       -0.04956294098238
C           -2.82175533845020       -0.61857540678875       -0.70434780252873
N           -1.68402386609210       -1.23288855630643       -0.39035878916085
C           -0.57758302140506       -0.76346822843427        0.11337030762236
N           -3.54670864851879       -1.18598914290251       -1.68387242975480
H           -3.25924117628329       -2.08025668942986       -2.04120235661648
H           -4.49653565175258       -0.88135368031775       -1.80379783970414
N           -3.24688308654369        1.96079331907859        1.59708840585422
H           -2.75103196553015        2.72661834276465        2.01802912001256
H           -4.25081390422447        1.93737052544553        1.62039854052942
H            2.28584946289668       -2.25666147127888        1.25683390848537
