30
 energy: -55.656716013122 gnorm: 0.000718022625 xtb: 6.6.1 (8d0f1dd)
N            5.82854133257334        1.17023399507143       -0.66914454320265
C            4.72350378921002        0.97942638023053       -0.42611833000696
C            3.35916915342603        0.76719424862497       -0.12533302798043
C            2.75836635603563        1.71345101230492        0.76478793687909
C            1.44612273170654        1.92984614558721        0.97293121551212
C            0.28741981786133        1.28131034511894        0.38487017178008
C           -0.81614712143195        2.05644241898377        0.18809105482950
C           -2.10792272960509        1.71325312320490       -0.30990141775180
N           -2.82753491768508        2.73095387264075       -0.82770100332071
H           -3.76212636096326        2.57475517293741       -1.16591808362949
H           -2.43172928623843        3.65075859502221       -0.90097170292691
C           -2.70652485211190        0.45752819394025       -0.20631353084476
C           -4.04251441767886        0.35167448410380       -0.63297159983395
N           -5.13436458960473        0.27442219699443       -0.98873359606104
C           -2.14166333458235       -0.71303213129917        0.40217558593011
N           -3.01484222552795       -1.66214552327523        0.80051798377212
H           -3.99426140710666       -1.56925422020074        0.58891395072648
H           -2.67190534451096       -2.55130643511863        1.12611252044161
C           -0.77664590031861       -0.96101500013829        0.54555048867027
C           -0.42653512236912       -2.18644934674055        1.15013083973937
N           -0.18354417475107       -3.15086211299832        1.72697566652069
C            0.33988500502644       -0.14584234383426        0.14539894609494
C            1.44081374592405       -0.80437408746953       -0.40291043772527
C            1.19822899192339       -2.10642374473024       -0.91200031259428
N            1.02585461598512       -3.12327542420439       -1.41455907655930
C            2.75168485176485       -0.34073261630111       -0.65489188088430
H            3.36040280600940       -0.99125132095428       -1.27252280892137
H           -0.68042422912738        3.11914293624945        0.35409072717153
H            1.18609031636866        2.72315795628896        1.66389066353568
H            3.45769911019836        2.35719501085977        1.28449359804070
