26
 energy: -46.400632142216 gnorm: 0.000484815312 xtb: 6.6.1 (8d0f1dd)
N            4.79756773185326        0.07892862528664       -0.26187961619329
C            3.64772594340454        0.08058930453002       -0.16905408380493
C            2.25480992888758        0.06807019851785       -0.05264848884499
C            1.66357093290734       -1.09032258758131        0.53845876986096
N            0.44108783690945       -1.51275836463532        0.34678235373601
C           -0.63952644092017       -0.88567960592844       -0.08067778654369
C           -1.59820677773046       -1.62111712610507       -0.78282136533020
C           -2.88626995625461       -1.21898984795404       -1.12561973316032
N           -3.64782774352379       -0.29198462902562       -0.60179935279545
C           -3.20761350176184        0.54024513791577        0.36419652518750
N           -2.01012925956358        1.04484231100777        0.51569538625459
C           -0.84341159294050        0.55911251715120        0.10038297471514
C            0.17366570956854        1.45981707630229       -0.17488022082344
C            1.53748404429428        1.23172268899168       -0.40844177756848
N            2.25128640231482        2.26188052612585       -0.92846820588907
H            3.25321229394420        2.19842157175053       -0.98780998498514
H            1.81265019112478        3.15404694356524       -1.06699730971123
H           -0.15218864917653        2.48928971098389       -0.25998586597236
N           -4.17632932122954        1.01043713812629        1.18056565445771
H           -5.13092451634634        0.80993983298402        0.94239073317987
H           -3.96060759683481        1.76996620687982        1.80092664292366
H           -3.40109446308298       -1.81472818699340       -1.87506586773728
H           -1.26393267597543       -2.58208603726072       -1.15073139743009
N            2.45553919618398       -1.89648888641025        1.28442030571982
H            3.45142446628723       -1.75604429333702        1.28574846936365
H            2.08526383796016       -2.78734115508636        1.56631082239124
