26
 energy: -47.188382825878 gnorm: 0.000726874470 xtb: 6.6.1 (8d0f1dd)
N           -5.54955206440586        0.41249427566017        0.32410935261979
C           -4.41525632874497        0.29958380581447        0.17971232621961
C           -3.02383491075450        0.18954063030873        0.01265012211029
C           -2.40821806767533        0.94682119651450       -1.01282801407425
N           -1.16555858861698        1.26106068892348       -1.08321824332074
C           -0.08921744207000        0.93167383670620       -0.37068730272421
C            0.82637927523760        1.92164639569638       -0.08278772082535
C            2.16028815985891        1.74022604218076        0.33800824156681
N            2.94174907793511        0.69599708969742        0.10773128793570
C            2.59127347235571       -0.51442283388863       -0.28694834765966
N            3.61085954778754       -1.26854166163311       -0.74314988542739
H            3.48001766859336       -2.24871085704063       -0.92720838296791
H            4.53857380780595       -0.88350096481284       -0.71293621414119
C            1.31197848657069       -1.13310213980303       -0.15146115212527
C            1.30616810270350       -2.53703945994156       -0.17786199090837
N            1.34618488638579       -3.68732483669547       -0.21358082263562
C            0.08162952752339       -0.47046254156419        0.02069645916112
C           -0.99545532648749       -1.14540975637918        0.61286963467136
C           -2.32442135642032       -0.77781711034101        0.73714302571417
H           -2.92550830556137       -1.39423613525838        1.39556635855232
H           -0.72245439885085       -2.06735109461753        1.11290290047123
N            2.79181244981073        2.78338066863649        0.91506876060085
H            2.32643362367915        3.66321716536056        1.04027182128622
H            3.77363117532345        2.70426701052562        1.11066532686832
H            0.48460866923254        2.94021404458846       -0.20855598120468
H           -3.03160897381665        1.34006264894144       -1.81007625835202
