24
 energy: -42.956591474812 gnorm: 0.000364113515 xtb: 6.6.1 (8d0f1dd)
N           -4.89752843764297       -0.15751937505857        0.65451175059458
C           -3.76027432875881       -0.17861695416413        0.48069610459306
C           -2.36821629422601       -0.18452870293469        0.26617564911182
C           -1.83175657729304        0.96230679450741       -0.39182219555119
C           -0.47968465297321        1.28843633233042       -0.47581460978671
C            0.61326755654376        0.50276383920367       -0.13694779096791
N            1.74465845479486        1.08360573414056        0.22225122110170
C            2.97759585595578        0.62429273939728        0.27000202703231
N            3.54178316935054       -0.29616642571957       -0.53489517890733
C            2.76838227742682       -1.19285773724560       -1.10212883263451
N            1.57237325109269       -1.58158429136848       -0.75033641344668
C            0.60029164786610       -0.97271076956247       -0.10654051833092
C           -0.39671214899935       -1.71298293104226        0.53468322451232
C           -1.69926473263895       -1.31549873685242        0.73869245909209
H           -2.33722508583325       -2.02979708913241        1.24760320022923
H           -0.13448593046410       -2.72704342189630        0.80435903952635
H            3.23175624143988       -1.78677470700257       -1.88416604728824
N            3.82266706523035        1.24981823444855        1.11556290997168
H            4.80503241546759        1.06578031944760        1.01500113851393
H            3.51329214006260        2.07875140158706        1.59095340038391
H           -0.24841934028888        2.30891154368903       -0.75599755930031
N           -2.72239795444669        1.86213205720320       -0.87735403311750
H           -3.70579046701268        1.74372801204713       -0.70121716548854
H           -2.39834090665182        2.74291020757665       -1.23444388804405
