26
 energy: -47.175380104706 gnorm: 0.000722074810 xtb: 6.6.1 (8d0f1dd)
N            3.41981005390078        2.56766304277180       -1.41905793095674
C            2.59275152769306        1.91059168256180       -0.96874234080848
C            1.58340209592166        1.08678264918564       -0.41731443537433
C            0.31799714550819        1.57339645195141       -0.45662414930713
C           -0.88587706210119        0.95479943399713        0.03411840981259
C           -1.89221470380427        1.76017154038518        0.49908429911536
N           -3.00265432048874        1.40217704551478        1.17405219565524
C           -3.59581721955057        0.26767514424129        1.04159071646036
N           -3.47390233955409       -0.60314935388957        0.02713947953039
C           -2.38422038975794       -0.84372195164878       -0.61028969624656
N           -2.43194940245278       -1.44882029777080       -1.80879931985417
H           -3.32846703308244       -1.67453614867838       -2.20573126139590
H           -1.59603484924785       -1.80334118443469       -2.23848648883076
C           -1.02338352843377       -0.49718083288884       -0.09884768984569
C           -0.08353435046260       -1.44302068658993        0.02812789184578
C            1.29922395638540       -1.26513786660147        0.41949651374556
C            1.92722090382914       -2.40518504740541        0.95312138625706
N            2.45030945918577       -3.33882760055395        1.37495441519519
C            2.06734059623603       -0.14301519313511        0.22056943924189
N            3.36915193930604       -0.12450981811413        0.60189956306999
H            3.78389874933147       -0.95971103734745        0.97962370814351
H            3.96633961910752        0.64212362811932        0.34488306382024
H           -0.37499128165152       -2.47626165796112       -0.12463290903606
H           -4.40910845770440        0.05664532870194        1.72651836933506
H           -1.73020100959122        2.83336474343361        0.48911404034764
H            0.19797245687623        2.57058591925537       -0.86949646302038
