27
 energy: -46.894093169305 gnorm: 0.000800450315 xtb: 6.6.1 (8d0f1dd)
N           -5.02974247518112       -0.46147497498621       -0.27368661429150
C           -3.88545394375499       -0.36053734665730       -0.20222485327448
C           -2.48588371883979       -0.27720290486621       -0.10248235854624
C           -1.90687819598198        0.94666565455424       -0.37326843910263
C           -0.58345560210347        1.36048398190213       -0.24026600715516
C           -0.41890324189161        2.73686998872964       -0.52198852496507
N           -0.33379132962221        3.85318776013888       -0.78136676707733
C            0.60026068854429        0.64870285299544        0.11474806114092
C            1.67145809973481        1.44559197779786        0.55112345878036
C            3.01060552822385        1.14479349759027        0.75269555104693
N            3.73552921481134        0.12907782411164        0.35590651265742
C            3.22867656973323       -0.98195752471926       -0.19138560982698
N            4.17961206392547       -1.78883451681814       -0.71074032803495
H            5.13400498730066       -1.47972922272180       -0.66193504829348
H            3.96022093805341       -2.68496250915361       -1.10387464481631
C            1.90922815269637       -1.44864171933362       -0.16928473409673
C            0.68913068518845       -0.79547894722141        0.05871058029446
C           -0.41482177567483       -1.66134970053210        0.21878167525064
C           -1.78468976106886       -1.47945134398218        0.24432680712202
N           -2.55682314307888       -2.54880509090525        0.55315337912146
H           -2.13954962435418       -3.44006920207133        0.75063302374062
H           -3.55919645175361       -2.47546439345986        0.51824753004765
H           -0.12442628043925       -2.69528775770354        0.37799191070441
H            1.81868260005310       -2.50202074887475       -0.41207298238835
H            3.60224748416482        1.91129513241871        1.24419635939397
H            1.40764246004064        2.46882144024999        0.78968212200563
H           -2.59699288002951        1.72743039101511       -0.67806297193434
