21
 energy: -40.556476422783 gnorm: 0.000954955234 xtb: 6.6.1 (8d0f1dd)
N            4.01954140920471        0.30016135373838       -1.08056967519679
C            2.95460940931256        0.56811659823742       -0.74726529244729
C            1.64124710147368        0.87777038020892       -0.33919733553103
C            1.23799279192563        2.19638994049597       -0.31587242665806
N            0.20003889048096        2.70094681785617        0.33579188084944
C           -0.92492607509785        2.15256752633212        0.65048858522637
C           -1.44865384719153        0.93189613843317        0.15052667915502
C           -2.84847595389357        0.75001526664849        0.16737192322831
N           -3.98731929625538        0.61832705962592        0.20045348060119
C           -0.65651211369438       -0.14033071415217       -0.25691126702100
N           -1.18631862304080       -1.16168280133634       -0.93058759587577
C           -1.01455127432417       -2.42332885525483       -0.82147291723660
N           -0.47117973632538       -3.07492069314444        0.21789012704481
C            0.56118716580847       -2.58293396314571        0.83264780223489
C            1.28714568830871       -1.40220273742921        0.53054761905431
C            0.78466483455677       -0.23620719562590       -0.00585965021513
H            2.31896416113770       -1.37647674388218        0.85874863849907
H            0.96613510922939       -3.22070812156883        1.61231705455837
H           -1.42288412141558       -3.04644296467105       -1.60959321915302
H           -1.56882183687278        2.75475856191033        1.28366777910164
H            1.89780312877138        2.94899801062163       -0.73428530201922
