24
 energy: -38.115199128863 gnorm: 0.000931397492 xtb: 6.6.1 (8d0f1dd)
N           -0.80783684352085       -2.51394326721151        1.16593577461516
C           -1.03202958788514       -1.49311770986572        0.30413834035290
N           -2.23009179430669       -1.26329297775153       -0.08275766262746
C           -2.65093958431389       -0.17954871621077       -0.76970517090393
C           -2.16246474889332        1.08062988227809       -0.69396381467827
C           -0.95282534041768        1.48936228722443       -0.03696881853176
C            0.11836133437257        0.67295402558037        0.18957873571415
C            1.31301611834521        1.14677627922462        0.90823058403120
C            2.56457200616972        0.96191405807257        0.47618354494607
C            2.91957067218778        0.23155086609046       -0.73225127727121
N            2.36014901563216       -0.80682431673449       -1.21151632733816
C            1.22814189590166       -1.37492635633110       -0.69257145365072
C            0.17570351243829       -0.74280005088924       -0.13333520535276
H            1.16820347731073       -2.43926995680061       -0.88857146660193
H            3.82168010496395        0.55454479194554       -1.24523634565040
H            3.39581365789953        1.37399844192022        1.03601571091557
H            1.13791465075045        1.67790426668068        1.83996369817106
N           -0.88711170654231        2.82799631891252        0.34443211826134
H           -1.54635375961929        3.43071141102661       -0.12342052825750
H            0.04043299667862        3.22010430883277        0.40249687549061
H           -2.75356640677772        1.87654989593241       -1.12950933010637
H           -3.56987144221406       -0.36028226507959       -1.31420111790055
H           -1.59500241059220       -2.96003543913918        1.60298282704139
H            0.11977714213239       -2.70218034180717        1.49872290633188
