32
 energy: -59.103448672774 gnorm: 0.000543319513 xtb: 6.6.1 (8d0f1dd)
N           -0.15798920788783       -4.07898575329956        1.64279616082198
C           -0.42998388894816       -3.07817361293653        1.14809391992501
C           -0.76709062742940       -1.85212114863613        0.53575016656208
C           -2.10141831475162       -1.54867494399152        0.50594966025408
C           -2.74979531811781       -0.44380167575667       -0.07195238206116
C           -4.15043092951571       -0.54640861531408       -0.18349464147934
N           -5.29326453172851       -0.62078968965877       -0.28492595435910
C           -2.16066354074964        0.75429345864983       -0.50997758985940
N           -2.95686304107297        1.66879625225594       -1.10315200401771
H           -2.60491401505239        2.58620436736567       -1.32155712127939
H           -3.94725007628982        1.49807313786368       -1.16505181640827
C           -0.79329346040576        1.11451376522506       -0.29978300223971
C           -0.49873454916836        2.45964910964377       -0.62495726500286
N           -0.30626074230515        3.53001288721125       -0.99906614566662
C            0.31957706173795        0.34665554723049        0.06366464591739
C            0.36950455819349       -1.09979369043844        0.02337005371058
C            1.44821922407689       -1.82333930361141       -0.39628961169722
C            2.74681223388359       -1.40049010372803       -0.80468195856441
C            3.36016696055035       -0.21802073100246       -0.44547251781670
C            2.82516203527300        0.82719372310365        0.32839428908345
C            1.45559806087155        1.07293928887765        0.54195056716488
C            1.14828874152930        2.20416360303741        1.32448081904899
N            0.94561815845053        3.07703204151456        2.04642185764939
N            3.70616230764275        1.71541925764762        0.84300726418353
H            4.68368523238620        1.64199542419092        0.62747716351175
H            3.37500566114487        2.53632274938324        1.32162371575384
H            4.40555297823845       -0.11555835854634       -0.70995407983787
N            3.45143125806398       -2.29947137478481       -1.53514591460723
H            3.08187255421345       -3.21943359010110       -1.69429641109030
H            4.41848732496741       -2.13330455581865       -1.74884353225858
H            1.29527942326405       -2.89425558594971       -0.46422170437827
H           -2.76453544526595       -2.29615302672383        0.92843995903585
