22
 energy: -45.080094947254 gnorm: 0.000739286539 xtb: 6.6.1 (8d0f1dd)
N            5.09685982355034       -0.38474764216340       -0.12612749229949
C            3.95322031427774       -0.38135992297455       -0.05130978575232
C            2.54249177227810       -0.39847806933673        0.03142483139325
C            1.93977869834374       -1.36642302325391        0.88250637893013
N            0.73357280540021       -1.79106063880280        0.77746492564450
C           -0.27703905526989       -1.39140954286808        0.03367401252180
N           -1.02839288451971       -2.23484309805856       -0.61792257710537
C           -2.30026144191864       -2.12966654239499       -0.89486747516794
N           -3.20568754877474       -1.47313563074496       -0.20431278246130
C           -2.96836107164418       -0.38407567804242        0.49358839272309
C           -1.84211498762614        0.45057737394177        0.43617419432072
C           -1.96024952496400        1.73801840169170        1.01120747597930
N           -2.06207772534471        2.75942653248119        1.52142814568360
C           -0.55784040571295        0.05299756017169       -0.02022973284626
C            0.45690064677940        0.91235682958598       -0.45982034584452
C            0.05570005572470        2.18362476378404       -0.94654786407843
N           -0.24917075844445        3.19642953467199       -1.38636845571723
C            1.82955959291461        0.62412560249028       -0.57775541249940
H            2.41644421915273        1.37528660577752       -1.09543285785036
H           -3.81790330657226       -0.02972580169239        1.06870433313074
H           -2.67151841070516       -2.76490663982562       -1.69118929307184
H            2.53627588327518       -1.81274854713832        1.67068544116723
