23
 energy: -43.241992969987 gnorm: 0.000992279863 xtb: 6.6.1 (8d0f1dd)
N           -1.53611838309072       -3.47453375040405       -1.01932387011443
C           -1.41490663535928       -2.35684453116252       -0.78187239152903
C           -1.27479190531961       -0.98604395830410       -0.48816239125857
C           -0.05276842606237       -0.58021691932466        0.11104212495132
C            0.33750876178737        0.83957480897634       -0.01413432400326
N            1.53958921525703        1.15916803052230       -0.44137216672857
C            2.66117243857869        0.49753916937575       -0.29535901909845
N            2.97382149508606       -0.37244559494780        0.68862084007789
C            2.10182914496839       -1.20516842454667        1.18886473828194
C            0.77940886195990       -1.45305244519781        0.79662487418621
H            0.35341372165880       -2.40223754961424        1.09815941809031
H            2.52218022133020       -1.86383906574750        1.94364368773938
N            3.67569148681230        0.81125971936052       -1.11892979933008
H            4.58935325545876        0.44492725205858       -0.92035772911062
H            3.55523181732037        1.55046640093314       -1.78782621073142
N           -0.49253252632298        1.80557258157697        0.29298133861883
C           -1.80820361204307        1.79787957664007        0.27737887663751
N           -2.61458029533896        1.06776250542610       -0.51175589992436
C           -2.32741271168473       -0.15081392426896       -0.88972941508715
H           -3.09006283623429       -0.60010030815079       -1.52032317204418
N           -2.43102492506995        2.72483081065410        1.02651533256436
H           -3.41724443806327        2.86379689443118        0.89630952446684
H           -1.88123142782464        3.40421599171404        1.52109972994582
