24
 energy: -42.958345411197 gnorm: 0.000478194648 xtb: 6.6.1 (8d0f1dd)
N           -2.01159856690331       -2.57265257992859       -2.01686114002413
C           -1.89276752256183       -1.61714609326665       -1.38866616224477
C           -1.74236722310168       -0.46119953555648       -0.59664659128250
C           -0.44037158718389       -0.29591501129372       -0.01313181535809
C            0.00294898026346        1.09754341057262        0.21857035353135
N            1.14975168042846        1.51249364899706       -0.29593628477009
C            2.24029081218125        0.80601063734195       -0.45612897420392
N            2.61548826511802       -0.30006528658371        0.21390401795976
C            1.77805299280750       -1.22959409246083        0.61045149306578
C            0.38780373757537       -1.34233118852165        0.27383964280844
H           -0.02441847766597       -2.34402277419692        0.26424619492005
N            2.32491897650472       -2.24596551125069        1.30650004301004
H            1.78699065226033       -3.06064142691949        1.53900484255912
H            3.31612031829489       -2.23733160272310        1.46966693959406
N            3.17769720055356        1.30833446138052       -1.28402844613177
H            4.10027644679513        0.91294235563582       -1.25761395498682
H            3.03382778055575        2.22528638705748       -1.66780380547910
N           -0.70978600160924        1.92252165420125        0.92539809295935
C           -2.00202968415597        2.02013341949896        1.12469896016990
C           -3.00471752836529        1.48092244884008        0.33712029965051
C           -2.83819761768399        0.38319781075722       -0.50580792745149
H           -3.70897365877081        0.07157539036464       -1.07206342894146
H           -4.00070073819643        1.88892453459251        0.43235151962309
H           -2.27042840644121        2.68680746786210        1.93746970652252
