24
 energy: -42.948984310694 gnorm: 0.000980752292 xtb: 6.6.1 (8d0f1dd)
N            4.92225754345930        0.73826970346181        0.23863092292833
C            3.78010005732308        0.60012152362419        0.26955398221291
C            2.39595616334363        0.39387665611332        0.28060889263992
C            1.85780884512144       -0.71856848242408       -0.43190685798868
N            0.69926149194319       -1.27848300565162       -0.15852114288523
C           -0.42600713948940       -0.82588568136796        0.33230093976584
C           -1.36909410335252       -1.70641747358191        0.87753773416220
C           -2.72981091933303       -1.47149741553063        0.93046265624231
N           -3.46439305981188       -0.58463376056819        0.29477177482461
C           -3.05578219333848        0.50742332016433       -0.34348516369476
N           -4.01344527918923        1.07749185212083       -1.11373903397840
H           -4.93787927352234        0.68425131924522       -1.07831658026752
H           -3.88510362893460        1.99867919631595       -1.49131686862210
C           -1.83316317838329        1.18836312052217       -0.18745412877559
C           -0.66945503880356        0.63458574694032        0.30940177117310
N            0.26938179621148        1.39971126637683        0.84302907737236
C            1.55180591207657        1.25695998269018        0.99041058049833
H            2.00495069509741        1.96949734562026        1.67335331816905
H           -1.81228731867647        2.24469890705921       -0.42235420225834
H           -3.33442336238495       -2.19603283422623        1.46950944283676
H           -1.00300211468911       -2.66476097901357        1.21890793831229
N            2.61651513508545       -1.33670983046144       -1.36549573648092
H            3.58810849055953       -1.09135735037750       -1.45285599656371
H            2.29754229300444       -2.21428035116660       -1.73784834165076
