28
 energy: -45.802870725959 gnorm: 0.000452383742 xtb: 6.6.1 (8d0f1dd)
N            4.32082550226038        1.36389569740384       -0.69657066846323
C            3.32399051254554        0.86109459051522       -0.41194297626577
C            2.10513461622985        0.24608023478863       -0.08190404675495
C            2.21128265625809       -1.07078441982980        0.54045190218406
C            1.29727395975833       -2.06452662376836        0.40074815368038
C            0.04621485877836       -1.97846958852417       -0.28022338528387
C           -0.71144302365967       -0.87707815548981       -0.43815815315990
C           -1.95960024948581       -0.88708548241071       -1.22120978900974
N           -3.10682383956677       -0.50091354527350       -0.85285992581058
C           -3.41708282671519        0.12472155467805        0.32176111741746
N           -4.68587929465692       -0.15780335645383        0.77823972357249
H           -5.12508965172314        0.53464320131934        1.36211011475346
H           -5.28939720263800       -0.60583939792865        0.10783979431822
C           -2.62785943756222        1.07345635697603        0.91000042067744
C           -1.27005044142215        1.33036727808883        0.58466745845878
C           -0.38873532543872        0.47586976296231       -0.00120563845885
C            0.95591785807164        0.94606348161553       -0.35599573395302
N            1.01356272599181        2.16477280663704       -0.95127203769487
H            0.16253948701817        2.63962636393083       -1.19266003205633
H            1.89033461272466        2.52203964668260       -1.29176355256044
H           -0.88364881201068        2.28750224036248        0.91562827281569
H           -3.08349518237191        1.71979452118345        1.64841694081716
H           -1.89349422792000       -1.24750232844897       -2.24615682761392
H           -0.35678002428062       -2.91564797783103       -0.64543531650361
H            1.55938575384124       -3.03760595624089        0.79643287902070
N            3.36852548579345       -1.28297195236134        1.26385895484114
H            4.15246680192497       -0.68258575873138        1.06142205659844
H            3.60569027865552       -2.24207422785155        1.45909919843346
