32
 energy: -63.134017021853 gnorm: 0.000347669065 xtb: 6.6.1 (8d0f1dd)
N            5.42091005852542        0.91567235058998        0.46801160024141
C            4.31314297353677        0.66340300462508        0.28081430679807
C            2.96474630141711        0.36572986898698        0.03742929955116
C            2.24042659080727        1.28734444751896       -0.78807365939625
N            0.95001418368037        1.48015506351549       -0.74997617409262
C           -0.03557684576817        0.73267362446628       -0.29233573026935
C            0.03551194303067       -0.73261595859122       -0.29262580350553
N           -0.95010886998880       -1.47992158687621       -0.75050462999735
C           -2.24051993025654       -1.28710178055546       -0.78848646909726
C           -2.96480727887455       -0.36580981488815        0.03740713125622
C           -4.31316509605892       -0.66354652925214        0.28086880231207
N           -5.42107301328547       -0.91606178144661        0.46737109342779
C           -2.45073790588654        0.84020717096547        0.53702015555661
C           -1.17268653253116        1.38407466425669        0.20338644014048
C           -1.00191562066469        2.76128961962854        0.45589798979416
N           -0.89405397284615        3.88421623822637        0.67535748497780
N           -3.25392223767761        1.60233551631517        1.31018691349792
H           -2.96696657038925        2.53154560874491        1.56894635990694
H           -4.20922145883759        1.32529701731177        1.46369793970666
N           -2.94088428465532       -2.10460172019326       -1.60002338336601
H           -2.44570513889973       -2.85531234646395       -2.05034674146911
H           -3.94202233539687       -2.15855364963278       -1.51733178242457
C            1.17262313774193       -1.38420948217298        0.20281778382428
C            1.00174041681952       -2.76150496055245        0.45504403566143
N            0.89400136414815       -3.88456654661938        0.67398712298331
C            2.45068843055616       -0.84047689429476        0.53661788673632
N            3.25387889483506       -1.60289617868547        1.30949727896524
H            2.96691834516107       -2.53219730850807        1.56792747524641
H            4.20918820839066       -1.32593423952927        1.46307667755722
N            2.94078053591821        2.10517658880969       -1.59927846515480
H            3.94191904046721        2.15909473954203       -1.51656390480814
H            2.44559871918088        2.85607848445913       -2.04927031526020
