31
 energy: -53.777678966224 gnorm: 0.000576727216 xtb: 6.6.1 (8d0f1dd)
N            2.39259648162290        3.44176418653427       -1.84374913924633
C            2.03651074794952        2.48786692830029       -1.30953004674134
C            1.56001378818309        1.33700262298527       -0.65152991576546
C            2.38647905866111        0.26025331827582       -0.58120455343358
C            2.14496192298771       -0.99631528777635        0.05377850695913
C            3.28899155336177       -1.75416299699147        0.36691111351175
N            4.20429019224199       -2.39517861636253        0.64029687053266
C            0.91193119190061       -1.58678634389157        0.28375592918315
N            0.83892283855419       -2.79630742541143        0.87786346722370
H           -0.04606702303538       -3.26804557326397        0.93803309566698
H            1.67993334658560       -3.28936715454687        1.13149414626432
C           -0.35043640723876       -0.98711763811540       -0.13756102140449
C           -1.30364949184800       -1.74995089831541       -0.74610539708829
C           -2.59582323454711       -1.34190807515118       -1.14709295500174
C           -3.30494412845472       -0.29210311252364       -0.62018433529503
N           -3.00687936997015        0.34390873472090        0.54403802936371
C           -1.82749901077637        0.56516687273816        0.99288855050068
N           -1.67059739740151        0.91779310628057        2.28892588621821
H           -0.81009758177096        1.34722486921826        2.57950586491440
H           -2.49133611257453        1.03680606837347        2.85797819707156
C           -0.56370914610084        0.41238718478708        0.21840458155140
C            0.25225991011755        1.46124495860384       -0.00660292185450
N           -0.08261500590095        2.74220426791706        0.43952721433387
H           -1.07453420307765        2.92482623974263        0.48780721159794
H            0.42568046204932        3.48438538520287       -0.02086313745512
N           -4.49849498974021        0.10952077486304       -1.17393887194797
H           -4.95939310334720       -0.54056489132495       -1.78847225607650
H           -5.10128430342636        0.63704145593213       -0.56404126412613
H           -3.08276758637249       -1.93895626047048       -1.90619219178612
H           -1.01997291620101       -2.75445291956808       -1.04082255133157
H            3.37786139947062        0.37166199663589       -1.00688553083558
