23
 energy: -39.199866145188 gnorm: 0.000926250706 xtb: 6.6.1 (8d0f1dd)
N            3.53961310314889        2.01098486755116       -1.15747639552872
C            2.73268954966788        1.32322457390550       -0.71172240957772
C            1.75331492779235        0.46797473281423       -0.17460846766262
C            2.06438189536410       -0.86662382151414       -0.03208056303729
C            1.21340348605436       -1.84764437462095        0.61333270967181
C           -0.12184412504913       -1.85914119318735        0.71177020520721
C           -1.03135796591765       -0.85818027136789        0.16680787358875
C           -2.19350844785762       -1.24113841827880       -0.43731664695784
N           -3.09453078513892       -0.46904848032429       -1.08908209569740
C           -3.30264814301695        0.76993925726609       -0.81282269434346
N           -2.94572922355824        1.38391733019117        0.33264808935724
C           -1.85790974199585        1.20810779787442        0.95399178302831
C           -0.66397468075095        0.53534684129170        0.38894305641198
C            0.54046705670032        1.10877491013069        0.27963419363874
H            0.62786990119422        2.16665258253939        0.49514955102646
H           -1.80925873875635        1.53971125071359        1.98763349248353
H           -3.99629921133466        1.31584146855734       -1.43917504127275
H           -2.39110161172306       -2.30231024340327       -0.54506826390287
H           -0.59033468722933       -2.70349025588116        1.20333494254569
H            1.75682900211987       -2.69404660086794        1.01721679064580
N            3.29927430938563       -1.32100637122876       -0.38602171191765
H            3.91606111948896       -0.71125543486156       -0.89566873688169
H            3.47977056811600       -2.30785177870156       -0.41326659412603
