27
 energy: -46.886976199766 gnorm: 0.000458112756 xtb: 6.6.1 (8d0f1dd)
N            3.89955543554323        2.69477754620754       -1.48764893136824
C            3.30990934032442        1.82665078924691       -1.02053869925659
C            2.57636167709632        0.76905551547202       -0.44404918480909
C            1.28025291558058        1.12053754236502        0.07280997326770
C            0.23568064566957        0.29488707681554        0.29080692370720
C           -0.98665927688638        0.83778853784756        0.87273057630759
C           -2.23858637957891        0.57654721116250        0.44902226053504
C           -3.34295969049230        1.17562561172665        1.08993901131912
N           -4.27325080602655        1.64087152159013        1.57693535434863
C           -2.55964426710492       -0.27830641388223       -0.72463529940868
N           -1.94269431949907       -1.34528295694364       -1.07091315970115
C           -0.80707863602375       -1.82963111483792       -0.49491427267224
C            0.22280784930718       -1.15512836398054        0.06039400488858
C            1.38173445063490       -1.90603009072967        0.57809049948698
N            1.07297531724353       -3.03319076702274        1.27439469448949
H            1.79619403119823       -3.53115474070720        1.76324417371246
H            0.11613765436520       -3.23501403520813        1.50090422701730
C            2.68646819316114       -1.59388271383947        0.32956484937797
C            3.19334281752549       -0.44455624856567       -0.31566310607473
H            4.21989454167826       -0.50840331941304       -0.65596464591859
H            3.42520231585807       -2.32463846243382        0.63600390815968
H           -0.71336646204971       -2.90046222273679       -0.63852944097737
N           -3.62448620981318        0.12161940717967       -1.46053365001821
H           -3.92625954178003       -0.48516978665318       -2.20307923103681
H           -4.26729140453592        0.80457610987032       -1.09889999373649
H           -0.86293827351941        1.52974237925475        1.70058790914605
H            1.13046920172154        2.17884628451830        0.25450054691260
