26
 energy: -42.379261581239 gnorm: 0.000618300050 xtb: 6.6.1 (8d0f1dd)
N           -4.94995907083329       -0.52816593389530       -0.71424334928372
C           -3.81271326195362       -0.48914921888339       -0.52701981001561
C           -2.43891587361720       -0.38322660876899       -0.29901654754817
C           -1.95631006075902        0.79825303409931        0.35909018041229
N           -0.73769745302247        1.24728067072513        0.30719273351026
C            0.42776607661184        0.75494105544021       -0.09659366660709
C            1.32431588346017        1.72142450051288       -0.57103648946211
C            2.70261590522477        1.67912679478589       -0.69057906360630
C            3.58570671916157        0.71288076432855       -0.26546801215306
C            3.27199838967714       -0.54968413879759        0.27216195446042
C            2.01463737347103       -1.14974800659130        0.30457883535451
C            0.73961502953950       -0.65978435500498       -0.00097677748678
C           -0.26107090286599       -1.62161023461131       -0.27312567605060
C           -1.60805254148940       -1.48082314166649       -0.52719172548329
H           -2.11640314765952       -2.37128307302058       -0.88083683959417
H            0.11872564887802       -2.62996960938175       -0.39026146122422
H            2.03288817397196       -2.20024843699031        0.57935588543034
N            4.31987979644085       -1.28648318647241        0.74150856484858
H            4.18253377318021       -2.25136261303368        0.98344720020169
H            5.25959253348147       -0.97814538875497        0.56713136555076
H            4.64121543219371        0.93804447972654       -0.35031429653281
H            3.15533653830571        2.57128797249418       -1.10722648458699
H            0.85035600576950        2.66358656357484       -0.81561894046062
N           -2.84303679625327        1.53485661927561        1.06697532255671
H           -2.54078691329366        2.41213190610246        1.45276685486267
H           -3.82612181591716        1.33924894781212        0.98863152250795
