28
 energy: -45.815229153200 gnorm: 0.000669034929 xtb: 6.6.1 (8d0f1dd)
N           -4.93029298029665       -0.41100344175664        0.02324773027735
C           -3.78298183075000       -0.28135909991528        0.01209929883267
C           -2.39380683163362       -0.12092258814733        0.00009957646781
C           -1.89493039343206        1.19422267301779        0.03947194582074
N           -2.81704513900388        2.19027465442023        0.11102032390191
H           -3.79808624085001        1.97421101399612        0.07840802318921
H           -2.52985781923765        3.15116352902333        0.08201352201882
C           -0.55755742712246        1.60267785730040        0.01317739612360
C            0.67544135578132        0.95259218263809       -0.01765630556451
C            1.78144222986372        1.84873194346241       -0.07752191941589
C            3.14358358651707        1.67123491442569       -0.07618564375801
N            3.91551946000395        0.60211263205461        0.00635082026422
C            3.42645422025541       -0.63414191991334        0.07957973098888
N            4.40737973406643       -1.56768029886405        0.20728268942416
H            5.35544816856461       -1.24472152817455        0.13260175374958
H            4.21116576861532       -2.54826978330882        0.13066983568843
C            2.10716945076359       -1.10465013653941        0.05019731169534
C            0.84961067856545       -0.48602752488161       -0.00105145932936
C           -0.22351491799965       -1.40316421963642       -0.03663821079677
C           -1.60236171329219       -1.30170602235998       -0.05074680413067
N           -2.29825446926290       -2.47054796908025       -0.13331286388371
H           -3.29970088111168       -2.46491523027329       -0.05025856321113
H           -1.81533512229654       -3.34773387856308       -0.06907306880863
H            0.10235513229850       -2.43881716369037       -0.05983674115224
H            2.06545296846871       -2.18876888870222        0.08672058062790
H            3.73295239066685        2.58303322245920       -0.14612774903926
H            1.49259674958431        2.89203861657654       -0.13626288104034
H           -0.47423581902612        2.68535137793240        0.02277472645939
