29
 energy: -51.123209191821 gnorm: 0.000474148166 xtb: 6.6.1 (8d0f1dd)
N           -3.05776900190438       -3.66816085912199       -0.01663495249214
C           -2.54712861022483       -2.63863701008098       -0.01235358060138
C           -1.93363816507798       -1.36505202514123       -0.00502812989737
C           -0.57516575112098       -1.37901521042292       -0.00359921128332
C            0.45850122748705       -0.37646536064366        0.00242145821388
C            1.71139422660805       -0.92672996920019        0.00202407451251
C            3.04162226962447       -0.39656814087457        0.00645845312449
C            4.05933865271315       -1.37060422259577        0.00510701375633
N            4.90799320579023       -2.14735207122114        0.00164914872473
C            3.44361016755487        0.92350357483208        0.01221366791018
C            2.53524630866194        2.04457244672165        0.01493482927455
C            1.19332139117852        2.07248535128556        0.01315090991591
C            0.14566777055990        1.06394847685623        0.00815769409641
C           -1.10167902683015        1.60747301965775        0.00913391255881
C           -2.43966885169004        1.07510842225130        0.00569476668508
C           -3.44700347678711        2.05996637066088        0.00790824097743
N           -4.27725638039332        2.85630759211900        0.01354090433843
C           -2.85731551687528       -0.23330646557392       -0.00058178137384
N           -4.17459771430188       -0.53840225796948       -0.00322117697732
H           -4.85666710804884        0.20116363159389       -0.00053199533365
H           -4.48175866750249       -1.49570651226814       -0.00801045199817
H           -1.13536890292000        2.69187153319245        0.01344765935450
H            0.78535801198470        3.07718250005613        0.01622818680306
H            3.03670293956265        3.00543920501391        0.01915710866520
N            4.75837084453727        1.23231793922681        0.01563150638845
H            5.44798112671736        0.49932874138656        0.01395850505974
H            5.06149202287080        2.18942571233075        0.01978634008235
H            1.74004854427252       -2.01147098017254       -0.00247680603409
H           -0.17465774984622       -2.38890190229847       -0.00799664245074
