19
 energy: -36.333322644589 gnorm: 0.000888262242 xtb: 6.6.1 (8d0f1dd)
N           -1.57280453196202       -3.13932354938272        0.95647326172658
C           -1.43499188522118       -2.04495203889431        0.64222048789047
C           -1.25941698027853       -0.69479332656636        0.26651540468633
C           -2.33927059870097        0.18403334997328        0.40201553193181
C           -2.46458922429935        1.48041145510839       -0.07842200741959
C           -1.46596036737132        2.26238827991661       -0.65941093854607
N           -0.16895606683387        2.13782499586155       -0.51274991563628
C            0.44263540656816        1.09757371676953       -0.01589580748304
N            1.50571446997728        1.14177818277449        0.74301846843657
C            2.51926970580018        0.33039299093158        0.86276170539687
N            2.97226522584885       -0.53030314256295       -0.03420027454790
C            2.15437063548960       -0.98946148642457       -0.96385985790297
N            0.84995560883016       -1.04244927610978       -0.89478549900521
C           -0.00305158183447       -0.31091756681056       -0.24285768462515
H            2.60372432255162       -1.51736664983540       -1.79582556584045
H            3.12535737092596        0.46624392965793        1.75122624847880
H           -1.76161311639361        3.14910534162693       -1.20851374050730
H           -3.45528709246429        1.91218461889482       -0.04744176606942
H           -3.23484735153288       -0.25937947282692        0.82194657703799
