25
 energy: -48.263767118280 gnorm: 0.000831106234 xtb: 6.6.1 (8d0f1dd)
N            5.74235449815430        0.88703203893082        0.07607680111106
C            4.61712006310584        0.67284401431585        0.00847472358727
C            3.23112791185315        0.42257908989495       -0.06115614073701
C            2.70172382750158       -0.60940313580504        0.73010327324769
C            1.43771857716939       -1.16458822612610        0.67209712743672
C            0.28020664445905       -0.65259399364288        0.06594140653447
C            0.24502722573730        0.78052355634121       -0.25384654990192
N           -0.72277325114886        1.56372980661382        0.16609168567703
C           -1.99878573630825        1.34814671570529        0.31076421380007
C           -2.70901388646048        0.23683587054835       -0.29193531667580
C           -4.08674654236379        0.41437196499195       -0.51331184303878
N           -5.20794952695369        0.60495513314708       -0.67807220114702
C           -2.14866118383716       -1.00293770266752       -0.52153764599167
C           -0.84643551463158       -1.44296790763062       -0.22717699569889
C           -0.64330134369952       -2.84054472477942       -0.28647149410926
N           -0.47748188012661       -3.97543942826896       -0.32347443337968
H           -2.82762394315124       -1.77110416029356       -0.87676824914570
N           -2.70695177658050        2.24807992981361        1.00650764753775
H           -2.23508867197282        3.05357583841581        1.38050020210051
H           -3.71246479472823        2.20808818286232        1.02121053101014
N            1.19967875006278        1.30176381896813       -0.98066335405934
C            2.47925520065639        1.11675859827211       -1.02617043508026
H            2.99287939156580        1.60473365391052       -1.84714560210413
H            1.30578417095770       -2.10375447529250        1.19651913896788
H            3.41799102998838       -1.12230663873615        1.36064126625566
