25
 energy: -37.843590720320 gnorm: 0.000656258222 xtb: 6.6.1 (8d0f1dd)
N           -3.71126650896652       -0.85742650234435       -0.95471401247362
C           -2.65514311028395       -0.24939656308573       -0.33203215617729
C           -2.79066945403507        1.09366500290441        0.00593558689975
C           -1.84355262385260        1.77972084107695        0.76950572115084
N           -0.57680426201828        1.56098990940588        0.88159974207781
C            0.21320191414474        0.60548822704583        0.34802493824580
C            1.46045281090539        1.03935032440111       -0.04896293967334
C            2.64429911797249        0.32383465928577       -0.31845395172480
C            2.88770164273516       -1.00544089958482       -0.00228814539508
C            1.98138357042369       -1.92875711264132        0.52155924152341
C            0.62284098316292       -1.84583162697685        0.65278927610878
C           -0.25220082015159       -0.77025153769709        0.32352610651476
C           -1.55990049234974       -1.08163303707858       -0.01069022017398
H           -1.75754474199899       -2.14224334742742       -0.12888896621705
H            0.12168239911598       -2.74688703775362        0.98848549264581
H            2.41789001064266       -2.88177690539717        0.79968401272902
H            3.89901240378419       -1.35921636168425       -0.16020106874446
N            3.66745620003984        1.04009631482781       -0.88291933074119
H            4.59609076622913        0.65570179653326       -0.84813278939898
H            3.59555045096285        2.04265586325245       -0.89836218245324
H            1.54574049288464        2.11845051814046       -0.11501637916880
H           -2.19046484935996        2.64276234308859        1.33443101016177
H           -3.74862985465216        1.56524591120883       -0.16555589871444
H           -4.58633797305734       -0.36557252317931       -1.00762191152033
H           -3.74992739857763       -1.86151235522065       -0.97743521778067
