22
 energy: -34.693926880928 gnorm: 0.000518208045 xtb: 6.6.1 (8d0f1dd)
N           -3.16296965453298       -1.13743292101057       -0.92998751804452
C           -2.22927216832587       -0.43457731463610       -0.25310277001484
N           -2.55503798194755        0.80287010376150        0.03622260977542
C           -1.73418978741880        1.58109462838974        0.76085722809667
N           -0.45953641928406        1.63305527360400        0.80256152246045
C            0.45025450806104        0.78490727134480        0.24307816121170
C            1.56338435956089        1.34484285096938       -0.32850486942749
C            2.75868396593815        0.72127050213031       -0.73546740466205
C            3.22601884471179       -0.50706206679274       -0.37451215531760
C            2.56843725141447       -1.46189665326868        0.44282882058169
C            1.25802010425516       -1.53045639975063        0.77486693104888
C            0.19280456983047       -0.64229695452055        0.37952636227934
C           -1.05813062431578       -1.15534250287779        0.16422954335093
H           -1.16363253386357       -2.23321558373984        0.20720193911462
H            0.93431844513885       -2.39158583744661        1.34848797257175
H            3.19564971080324       -2.27443248905504        0.79099330594822
H            4.22224066577138       -0.77759698068174       -0.69904578235894
H            3.42269704307505        1.34135318464978       -1.32584952992910
H            1.50337319897279        2.41500924952615       -0.48270560158501
H           -2.25473970497531        2.33743109540091        1.34439219611877
H           -3.04737769752813       -2.11563229613841       -1.11946937143504
H           -4.01277826234133       -0.67038709935806       -1.19224115818397
