25
 energy: -42.661024740063 gnorm: 0.000682953765 xtb: 6.6.1 (8d0f1dd)
N           -1.73801679299524       -3.55389825490141        0.44459742093575
C           -1.52373269617670       -2.42740843831486        0.36027454784431
C           -1.31352195710801       -1.03579855122687        0.27079836221886
C           -2.38702232368884       -0.26415973828498        0.80675668172704
C           -2.65116068132771        1.04932055811532        0.61327730775674
C           -1.86544717851310        1.87288841407917       -0.27187666611316
N           -0.60565390031595        1.74603112886083       -0.52040095475441
C            0.29073110425537        0.80819098137328       -0.16057846741183
C            1.55155025473747        1.25985335461039        0.15296596432390
C            2.74611209868090        0.50765563297581        0.28881474675449
N            3.04577086560373       -0.64993108291174       -0.26687439253867
C            2.18733928867028       -1.47335058281931       -0.85719815827406
C            0.82065197485162       -1.54879779609250       -0.77992026483857
C           -0.07499007062228       -0.60529011539758       -0.21152638187099
H            0.36733206052401       -2.45718836157469       -1.15773319469346
H            2.69400023175378       -2.27571683340062       -1.38627237460344
N            3.76975379662587        1.08166688315638        0.96369018338217
H            3.70216674796474        2.02079100315252        1.30941721766482
H            4.65902283064345        0.61408340503444        0.95690062470863
H            1.63302085930794        2.32755089126134        0.31481217069743
N           -2.49389111972680        2.92574103218131       -0.85282343216802
H           -3.49414166248885        2.99732901627119       -0.81856400134442
H           -1.99629481768498        3.43398352019887       -1.56316165498348
H           -3.55869739693677        1.47694438915939        1.01422414271994
H           -3.10926942093500       -0.83933666480507        1.37565891706027
