33
 energy: -58.019832555836 gnorm: 0.000809482293 xtb: 6.6.1 (8d0f1dd)
N           -4.18457466155331       -1.95049263731325       -2.14515604017174
C           -3.52119680143280       -1.32235865795876       -1.44434649618272
C           -2.72323515498896       -0.54566531184805       -0.58924501681194
C           -3.25956176520240        0.63735844861513       -0.09836903952354
C           -2.63856895397312        1.47276153741051        0.87808639669074
C           -1.31625186304711        1.60319722506599        1.16237398708986
N           -0.91148802265169        2.46464364310144        2.13498579195740
H           -1.58639029146034        2.88462467800671        2.74919183404305
H            0.05867846686834        2.50683098685239        2.38909531662049
C           -0.22428935895082        0.93131035667448        0.43794534130099
C            0.84295186940673        1.65388807360167        0.04665429616103
C            2.03089007799979        1.18786859324912       -0.61827325886575
C            2.73314402469105        2.16126286014487       -1.34916411455816
N            3.32486454362835        2.95910946557693       -1.93069750472722
C            2.59287615623535       -0.06784535700575       -0.51863989006349
C            2.07836089812583       -1.12272199692471        0.33544986855339
C            3.02643455299932       -2.06270990354758        0.77737386580777
N            3.79469871980343       -2.83529852662437        1.14949265269594
C            0.76703853790396       -1.33561587978291        0.70094203555494
N            0.45015756681642       -2.36187901937514        1.52305106360236
H           -0.51554076649294       -2.58945723741125        1.67956488678622
H            1.15939128210734       -3.01512041099940        1.81414292374749
C           -0.36642114672915       -0.51491969077016        0.25989823434267
C           -1.47571543875582       -1.13294576105225       -0.20301471860149
H           -1.41660173915763       -2.20166296832609       -0.38186886604747
N            3.73660058545593       -0.35910458304441       -1.19631017860278
H            4.25354710133556       -1.18959592390656       -0.96253568677686
H            4.22292262674560        0.38594306694124       -1.66701999554779
H            0.79684894841536        2.72988659511643        0.16897233635639
H           -3.31880197883849        2.12177285109884        1.41778019789870
N           -4.53579171668438        0.97103261738860       -0.43650983772293
H           -5.00023698097585        0.45053400498315       -1.16132502778376
H           -4.89083417484804        1.88042955166128       -0.20326356442469
