26
 energy: -37.558565257258 gnorm: 0.000154942306 xtb: 6.6.1 (8d0f1dd)
N            3.72392965830407        1.01754842160316        0.84896259263171
C            2.67954417732693        0.28066967630353        0.33117996651407
C            1.53207864415912        1.04893367626394       -0.04768398076046
C            0.25534247139850        0.67959031175671       -0.34598755480966
C           -0.63056752352602        1.74900846975251       -0.78069375314968
C           -1.95488953040719        1.90794668716390       -0.57747495549616
C           -2.86905732678832        1.04964957500459        0.08186407439758
C           -2.67931766083319       -0.28052569223330        0.33219119174328
C           -1.53199141959415       -1.04890846930112       -0.04686348087001
C           -0.25535775952213       -0.67965516847673       -0.34571485146598
C            0.63040734922245       -1.74921675001238       -0.78034430504772
C            1.95479668230209       -1.90809974322793       -0.57750971939102
C            2.86919883356703       -1.04958399483120        0.08120224552782
H            3.83206531117606       -1.47381269686248        0.33666468660265
H            2.38476955114767       -2.84090722171363       -0.92556092606116
H            0.11709987478258       -2.55555350701354       -1.29168857313788
H           -1.72023085850800       -2.11794999202241       -0.05645447498352
N           -3.72354174916795       -1.01725473839422        0.85050886161405
H           -3.50351399259233       -1.90763738629453        1.26399815963473
H           -4.47044875403627       -0.50642039674701        1.29082518436808
H           -3.83183873665244        1.47395559458466        0.33752171279968
H           -2.38495330282567        2.84070222537636       -0.92554254266725
H           -0.11742037132486        2.55521343491552       -1.29239125562731
H            1.72031745147906        2.11797164039375       -0.05768449536881
H            4.47096782683247        0.50683662083061        1.28920199661769
H            3.50402199068089        1.90804153148193        1.26228435198405
