29
 energy: -51.138364411967 gnorm: 0.000977393052 xtb: 6.6.1 (8d0f1dd)
N           -0.16112709795936       -3.98103697406029       -1.52113779396402
C            0.34200866179580       -3.05017549648796       -1.07140149589535
C            0.97435465961434       -1.91860411776266       -0.51760340175011
C            2.33231237544355       -2.01969263085244       -0.34339742717901
C            3.21805702854501       -1.09426982411968        0.20654029547450
C            2.99315743958513        0.25347897455255        0.40890088393869
N            3.97008596388347        0.98812840745566        0.99413803329786
H            4.85613680521435        0.56049116537302        1.19710521036927
H            3.90247532012135        1.99127362976360        1.02816302594632
C            1.82702457974243        0.97729325055964       -0.04221899323928
C            2.03459264905733        2.37131975652348       -0.12687115073007
N            2.26158942289391        3.49854264231153       -0.16402768483149
C            0.54315790323220        0.53412971109460       -0.33623886735632
C           -0.35174594204189        1.50303156507438       -0.90984544874996
C           -1.69577253575226        1.63044850164229       -0.78339308523883
C           -2.60286203369363        0.85270951307834       -0.02443886528606
C           -3.88815936109683        1.39169692473467        0.16474020540627
N           -4.95011784170228        1.80260726253812        0.32746092230100
C           -2.35900793434199       -0.43073662229582        0.47830309072019
N           -3.33416556756897       -1.05155657478507        1.17913114902520
H           -3.24212080183625       -2.02070615983949        1.42728356364574
H           -4.23147459532328       -0.60813018276859        1.28686242981770
C           -1.18627483834352       -1.18837586019896        0.22093733633211
C            0.07605168634025       -0.82399098148765       -0.16885764682313
H           -1.32092017845621       -2.25090919437397        0.39488033920395
H           -2.14352124914697        2.48861898100040       -1.27053789030687
H            0.14221038040720        2.27544648825678       -1.48669322146813
H            4.20556103636809       -1.45959832406198        0.45478888390734
H            2.76397484771580       -2.97589287026475       -0.61687340516531
