31
 energy: -53.770501959365 gnorm: 0.000851453941 xtb: 6.6.1 (8d0f1dd)
N           -2.68250782817374       -3.49517119419614       -1.27682256607463
C           -2.11662150145454       -2.57413102364822       -0.88042475892931
C           -1.44105138995649       -1.45293349326968       -0.37097889096900
C           -0.12830156502859       -1.71329223745766        0.16838705824971
C            0.88611650236629       -0.83986328648521        0.28425116788356
C            2.15907149269477       -1.25541368272612        0.90444445846995
N            2.05556176328723       -1.88799678330058        2.10019220914578
H            2.87757551281605       -2.26185768441782        2.54166102676997
H            1.15715686332046       -2.20856268039370        2.41651734668114
C            3.36539952846285       -1.05446229500601        0.30408100538796
C            3.57030127672325       -0.32699855454591       -0.89902688394417
N            2.89583372023103        0.64606564513300       -1.39936428106400
C            1.78080250366230        1.20282224877795       -0.83644168654152
N            1.67393293796939        2.55927869885026       -1.15437420987605
H            0.73931191864250        2.88861935549369       -1.35109474278992
H            2.33129735262307        2.80874951282583       -1.88046560880568
C            0.82530563166014        0.57398234159747       -0.09375749517936
C           -0.30628730982274        1.32268967794684        0.46550515182209
N            0.01832107057088        2.42750662227680        1.17507213014839
H            0.95521279221915        2.78617084608371        1.10835893243809
H           -0.70595661051950        3.01660810245687        1.55312839243994
C           -1.62226760326908        0.94151269845019        0.32267463088973
C           -2.60371345969882        1.81891184681490        0.81406581787553
N           -3.39886393473347        2.55151694434994        1.21062250844334
C           -2.11811170278377       -0.25397770628400       -0.33788988086005
N           -3.36072193566380       -0.15181794717201       -0.89366262401883
H           -3.82179285180899       -0.99928021847444       -1.18267423497482
H           -3.94216074247425        0.63109485000181       -0.64547030215291
H            4.47155682657533       -0.56782951263890       -1.45716520497053
H            4.23624205313559       -1.53024174688481        0.73662630224262
H            0.04830336022698       -2.74877582885772        0.43717545146355
