27
 energy: -46.886976219196 gnorm: 0.000448730630 xtb: 6.6.1 (8d0f1dd)
N           -3.89706045575972       -2.69580261881179        1.49187820999290
C           -3.30822789004749       -1.82746313825086        1.02412744139103
C           -2.57566829190231       -0.76959679375870        0.44687712902522
C           -3.19322347836087        0.44379592948265        0.31917545087846
C           -2.68744980234878        1.59331198481800       -0.32658486248718
C           -1.38309641591230        1.90592921260897       -0.57650460949529
N           -1.07548824889392        3.03321720631883       -1.27311462708510
H           -1.79941268926878        3.53090526921898       -1.76120551791354
H           -0.11896944235109        3.23535702778357       -1.50070180715598
C           -0.22334325551983        1.15543683295443       -0.06006814847208
C            0.80689807950608        1.83029584526554        0.49414181838128
N            1.94331690615707        1.34634461217246        1.06889562875394
C            2.56027345291587        0.27959717545936        0.72193104782822
N            3.62608235611106       -0.11992660547346        1.45665603399743
H            4.26872894292021       -0.80266443388726        1.09432695774182
H            3.92844594319542        0.48697449042631        2.19888025519819
C            2.23824285167796       -0.57537618317710       -0.45137506474707
C            3.34212245895135       -1.17410430043309       -1.09346117049695
N            4.27204686250382       -1.63906954238594       -1.58142047930723
C            0.98594851673641       -0.83704733698265       -0.87374157227400
C           -0.23594906837520       -0.29457956851732       -0.29049259377853
C           -1.27998755261693       -1.12060768693765       -0.07136936591286
H           -1.13001571724242       -2.17886219831297       -0.25322233805724
H            0.86157004679000       -1.52904080642300       -1.70147179331989
H            0.71296109920168        2.90109172400830        0.63787749537178
H           -3.42677409664251        2.32380276596714       -0.63222911122248
H           -4.21943239632597        0.50727617326182        0.66059398736701
