23
 energy: -44.014010478423 gnorm: 0.000451924531 xtb: 6.6.1 (8d0f1dd)
N            3.08640160137398        1.83568649655772       -1.74591239679172
C            2.56946274124116        1.02423817600321       -1.12077341916035
C            1.93097214192527        0.01560781053153       -0.36705451567144
C            2.37526780184197       -1.29062549169223       -0.51495283847976
N            2.09672027377158       -2.34661564991206        0.23636471683300
C            1.08151177930213       -2.40268855051399        1.05939135689767
N           -0.05244116027145       -1.75093191666629        0.95928281853602
C           -0.28571030528624       -0.57167135779864        0.46206483406475
C            0.78084197642684        0.44562656391468        0.38854947430210
N            0.67359010331429        1.64801469324307        0.83194400705075
C           -0.41369201987056        2.34894545595255        1.12099214192689
C           -1.64279868208696        2.20934528519087        0.53656946479509
C           -2.11902415914769        1.06460606051218       -0.16090694191301
C           -1.54861554700682       -0.22366549149103       -0.08489692541501
C           -2.29496582190846       -1.29563726433751       -0.61491865778959
N           -2.92842313391988       -2.14357735276332       -1.06170537289679
N           -3.28980701479322        1.19473432878399       -0.81516693701765
H           -3.77989583649358        2.07163201625494       -0.81004423180321
H           -3.73282878806756        0.39083497747936       -1.22927412166672
H           -2.33976917952204        3.03173337546541        0.62231850032637
H           -0.22471769170402        3.19961551758621        1.76402047397250
H            1.10949045967973       -3.18336634666202        1.81102933534181
H            3.15533139560223       -1.46853144893538       -1.24836123974469
