27
 energy: -46.890151077370 gnorm: 0.000901202345 xtb: 6.6.1 (8d0f1dd)
N           -4.62406188409549       -1.62732536867081        1.02879906026281
C           -3.70875355250212       -1.11096728305154        0.56831887691659
C           -2.58009805842763       -0.47948855828303       -0.00627534897322
C           -1.37593854945006       -0.69430018693782        0.56877597629120
C           -0.10923815520873       -0.15644584274818        0.08866992103013
C            1.01561207889685       -0.93856278785611        0.04347770158075
N            0.94197582204146       -2.27953608369075        0.36225183575711
H            1.72246568971552       -2.84830769864419        0.07317165315255
H            0.04319278558677       -2.72588410234562        0.28819303564219
C            2.31485206938758       -0.45678227582484       -0.38680243786429
C            3.20432050096184       -1.41621280053267       -0.90880164113913
N            3.91045862772032       -2.21124995673491       -1.34519074095423
C            2.76471169070065        0.83592208438892       -0.30096829242477
N            2.18945778827134        1.82979989892918        0.38141610001713
C            0.93101814872168        1.98166180431637        0.58471259244008
N            0.50999005776845        2.82993017078922        1.54062919477360
H            1.18562012426563        3.26875742012135        2.14208141548469
H           -0.46440401993374        3.04962512924040        1.64056790663600
C           -0.13416086353271        1.27607458711381       -0.18357355314637
C           -1.03418690717933        1.95033524403434       -0.91384582232932
C           -2.16240233506766        1.37565875430476       -1.60821152543129
C           -2.85314838079910        0.30009385293436       -1.20667870752698
H           -3.74006160313543        0.00378900369841       -1.75171121093038
H           -2.51023978462149        1.92203986915429       -2.47504887785562
H           -0.90910182762077        3.02069143471833       -1.02376095291205
H            3.74873359272816        1.07508861664956       -0.68520529756820
H           -1.33546819369413       -1.32030017217252        1.45561181337026
