25
 energy: -48.260080852124 gnorm: 0.000832051394 xtb: 6.6.1 (8d0f1dd)
N            5.62757404625093        0.76842402000219        0.33714230928538
C            4.50041457042415        0.62807158009647        0.17338362769866
C            3.11266807018169        0.47971338291695       -0.02415582945536
C            2.46832619236238        1.39715890912902       -0.89903053353438
N            1.21778653048012        1.68354982966009       -0.90602749434360
C            0.16991263804039        1.14600691245137       -0.28936368133368
C           -0.82610632277189        1.96094324288307        0.23701792924776
C           -2.10606061593238        1.59053969993122        0.63940826941833
C           -2.81280320772450        0.44030126049317        0.32578529222072
C           -4.16049964624887        0.33741861543121        0.71150996747422
N           -5.26698156697610        0.22080987139172        0.99989770557648
C           -2.28934118181741       -0.62311540277623       -0.50083743548294
N           -1.02733124000134       -0.95716421391171       -0.54282673724646
C            0.05879659955867       -0.30833235125875       -0.19047075236663
C            1.15304296347142       -1.04129167331932        0.33245578861543
C            0.82942157551956       -2.33810955652315        0.79787104113255
N            0.57588992605033       -3.39149011431398        1.17383296164250
C            2.47182659708699       -0.62140028951895        0.52913047933217
H            3.09787136296159       -1.30746703283999        1.08979604556889
N           -3.14718615917743       -1.37782729248975       -1.20016841620002
H           -4.14003643507468       -1.27095720788217       -1.07385165860349
H           -2.79277327665604       -2.17314302718807       -1.70458368078546
H           -2.66700851325804        2.34404503943255        1.17996491879130
H           -0.54922368710115        2.99679428984847        0.37999694251161
H            3.08144117532093        1.95611868943893       -1.59860993316599
