26
 energy: -47.178515431163 gnorm: 0.000547727014 xtb: 6.6.1 (8d0f1dd)
N           -1.00228205670139       -2.82969091469850       -1.30573053993186
C           -1.03437774129840       -1.81524757133919       -0.76278713922005
C           -1.18540402749428       -0.52852445666926       -0.20956617111568
C           -2.53736754359000       -0.11167270566469       -0.03949910685617
N           -2.97858527448168        0.91080827345027        0.68348095273650
C           -2.28261051387339        1.97123262875573        1.02289761427639
C           -1.04398899753213        2.40194872212974        0.58389224365799
C            0.00244690451294        1.66635383151138       -0.00028238552798
C            1.05092692672214        2.39832960034417       -0.58531242308831
C            2.28829124640944        1.96360979303998       -1.02396808127947
N            2.98130427002764        0.90162192612016       -0.68339525200326
C            2.53728316402034       -0.11873780616532        0.04090821436539
N            3.51204354712059       -0.88624954407064        0.56232478566255
H            3.29898956217536       -1.76048676571487        1.01286863999651
H            4.46360929914228       -0.65212866436143        0.33763856458438
C            1.18419433286759       -0.53155842704724        0.21164932015641
C            1.02961213483418       -1.81712532687655        0.76657832297933
N            0.99462190035966       -2.83069014806849        1.31097082725577
C            0.00041122071228        0.21354639859313        0.00058261494978
H            2.84777947893815        2.63863373782402       -1.66554303682753
H            0.82301674157746        3.43899389019201       -0.78084420334697
H           -0.81311829784440        3.44216620697880        0.77834399430134
H           -2.84019570529543        2.64849554888257        1.66389534046538
N           -3.51420648502535       -0.87708389083507       -0.56008138609884
H           -4.46514031299028       -0.64001204535527       -0.33581022894472
H           -3.30355124909284       -1.75247326885539       -1.00951091834676
