26
 energy: -46.406216322693 gnorm: 0.000272362914 xtb: 6.6.1 (8d0f1dd)
N           -0.17913892301366       -3.53238844458136        0.26227334440313
C            0.14123774025502       -2.42871237322498        0.18826662396480
C            0.59372350599319       -1.10189704454863        0.12351037303625
C           -0.36388004655173       -0.11789035192247       -0.16302397135653
N           -1.53284884333744       -0.52047988848965       -0.63092571022785
C           -2.73620021132225       -0.03492752894238       -0.48725683671508
C           -3.13629993913302        0.90987184840082        0.49962122254215
C           -2.29970987300364        1.84943675589057        1.04217652080398
C           -0.95951605972501        2.10536139604060        0.73572551846577
C           -0.05152206593304        1.29854974748509        0.06372400191433
N            1.09632892408220        1.83460731429182       -0.34952586473560
C            2.25046091992416        1.24260070909762       -0.51832434162004
N            2.72533373830919        0.13724423211943        0.08056017926178
C            1.97738987914017       -0.88007453778898        0.43931551491218
N            2.62187414736450       -1.86369565432307        1.10391263024945
H            2.17147470114394       -2.75174431190864        1.24636729476310
H            3.61936474629529       -1.78904895074427        1.20063708400672
N            3.15605705474597        1.89296451566405       -1.28501062070394
H            2.93855258931239        2.82574695602527       -1.58734567233293
H            4.11425196229277        1.59657715737432       -1.23529730657474
H           -0.54783821508605        3.03871299908910        1.09636085010743
H           -2.75654955449373        2.55282497174237        1.72869520944924
H           -4.18418539628811        0.92979271221032        0.76477887180858
N           -3.68140377792276       -0.54752013150909       -1.31429116955081
H           -4.65371320608811       -0.41656562331379       -1.10018411474394
H           -3.41865248765988       -1.32994701773421       -1.88899659952824
