28
 energy: -50.632112786867 gnorm: 0.000770739809 xtb: 6.6.1 (8d0f1dd)
N            3.17595453379101        2.75603405486968       -0.10130859260962
C            2.50661537812432        1.81991239341165       -0.06739357599121
C            1.74296017673311        0.63750544944097       -0.04210493325952
C            2.45195088125698       -0.53163826082204       -0.51162682098118
C            2.13014081596196       -1.83206952940511       -0.19635600805692
C            1.00242574534951       -2.21006194097003        0.57295004980044
N           -0.14072398546319       -1.57953736257186        0.61662588968075
C           -0.50845229382875       -0.36205029377554        0.25370773945052
C            0.41147772812793        0.76794298262286        0.35494337639554
C           -0.02908793767533        1.99134087063597        0.92220795697133
C           -1.30764027838735        2.48606615001681        0.97037203293037
N           -2.39854856433975        2.11932069114288        0.31223997796632
C           -2.59128294891820        0.98110620493948       -0.31803899517127
C           -1.83770168800521       -0.22715546022676       -0.17247453438980
C           -2.49959789284902       -1.42095587351851       -0.50902905660333
N           -3.07880429067734       -2.36791615339730       -0.81304585388949
N           -3.69461861722111        0.94144967068594       -1.09720685724180
H           -4.02625665953575        0.06631632308745       -1.46539421967172
H           -4.30886929920461        1.73708800228049       -1.07436894542524
H           -1.46014485541050        3.40220913120959        1.53321968991953
H            0.74451528733328        2.61916453097696        1.34662875814789
N            1.05506106681859       -3.36720025421710        1.27446436151257
H            0.19794460231720       -3.70141058510944        1.68093537237676
H            1.79898162032467       -4.02169675192459        1.11347888895588
H            2.83323334455864       -2.60711272816191       -0.46954626314606
N            3.56832221521852       -0.29709112200672       -1.25035207594043
H            4.19384415398692       -1.05785726491343       -1.44880496376124
H            3.92643052791472        0.64006628559960       -1.32772456956705
