25
 energy: -47.466964861700 gnorm: 0.000739140743 xtb: 6.6.1 (8d0f1dd)
N            0.56108150603637        3.24683821892898       -1.68949985075796
C            0.77670137659579        2.25484498467856       -1.15319015083491
C            1.07155722139328        0.98758692226773       -0.60510549523477
C            2.39915707519235        0.56994873248669       -0.71169150926030
N            3.01011697171005       -0.42825973038975       -0.12927135945421
C            2.44731735623490       -1.49305519518842        0.43867139448247
C            1.13594487169498       -1.96750474074596        0.24021032853198
C            0.01993862364727       -1.22525696139503       -0.10091126898821
N           -1.06623525563915       -1.88325846912515       -0.50680448756774
C           -2.32580967327549       -1.58314138427243       -0.39628725071550
N           -2.90592005448000       -0.78094558187863        0.54147080287708
C           -2.32281894185694        0.29533676453472        0.95916307607690
C           -1.09777438502254        0.88168841618049        0.54183876359491
C           -0.93455249729011        2.22521759193559        0.94966886233678
N           -0.84132428779977        3.29005552759164        1.36767343774046
C           -0.00537342796880        0.23872083867813       -0.05736387106690
H           -2.90808836951978        0.87213279232576        1.67000951174925
N           -3.20109498454996       -2.22268442770234       -1.18876223108090
H           -4.18366496331899       -2.09535185894885       -1.02746490484609
H           -2.87093293000407       -2.89096876524692       -1.86106087380454
H            0.96020833948841       -3.02261538302104        0.40249822891173
N            3.30641331668169       -2.24897327344515        1.15119985699925
H            4.26767737354077       -1.96030335382571        1.19851540894084
H            3.03046718733329       -3.13588867997669        1.53047298404939
H            3.07027387057626        1.22650067865362       -1.25835010867912
