25
 energy: -42.645948855431 gnorm: 0.000650954248 xtb: 6.6.1 (8d0f1dd)
N           -4.28533940200819       -0.60035359934288        1.73305542437632
C           -3.36373733705989       -0.23886245052669        1.15153187099065
C           -2.21714201906124        0.18689333250995        0.44847705132712
C           -2.13456710304791        1.49887129430059        0.06337099066507
N           -1.29917561057911        1.95045557494858       -0.89038970520065
C           -0.10886703113239        1.58368786531949       -1.10582321873458
C            0.69769575753705        0.70858823003328       -0.22428377849047
C            1.92742020895219        1.05345998281600        0.25590393564558
N            2.43015720834703        2.32217062746164        0.01714402123733
H            1.75924702387240        3.03350631963113       -0.22693923269252
H            3.14676587711822        2.63346222860009        0.65288907702485
C            2.72980781956088        0.18275154124462        1.06864172478704
C            2.68786412520966       -1.17132004996181        1.05116776707131
N            2.07114913931860       -1.95580811388781        0.14448331561989
C            0.99705430354500       -1.68963207393152       -0.49810818582042
N            0.67514071046715       -2.41774880387123       -1.59235277400683
H            1.27575075244953       -3.18564143161513       -1.84139841672741
H           -0.26762964290139       -2.41176235271844       -1.93913320752854
C            0.06134074428760       -0.58648621584932       -0.14135699214074
C           -1.24406712241624       -0.82435566836395        0.12172580964759
H           -1.58741698574309       -1.85079567835157        0.16574123778217
H            3.32397975188894       -1.73110410123213        1.72575403704226
H            3.45924711109170        0.66155889868967        1.70839384829730
H            0.34144783750296        1.91259548579394       -2.03949248959376
H           -2.89893539749807        2.20468446060412        0.36113467432153
