26
 energy: -47.191050084816 gnorm: 0.000733473546 xtb: 6.6.1 (8d0f1dd)
N           -5.50106622108683       -0.63853899528237       -0.13706593190593
C           -4.35784396082721       -0.51107010974009       -0.16241488392766
C           -2.95999815988060       -0.33778816784729       -0.18668780300473
C           -2.24065447008829       -1.37493524756535       -0.78635114073177
C           -0.88550639580880       -1.60739399009231       -0.79986226752726
C            0.11174882428587       -0.75605109953630       -0.30486352158340
N            1.22480020694121       -1.27296272384067        0.15453591371097
C            2.41965655371620       -0.78878894178401        0.40778217779255
N            3.16149282969753       -1.46191059855048        1.31331986854447
H            2.79623727066984       -2.31643337871664        1.69674186496277
H            4.14480297470120       -1.26603160998419        1.39384316286201
C            3.00680938063576        0.30142800070401       -0.30612405817356
C            4.40081126798567        0.42646882040734       -0.32675920135726
N            5.54933608440497        0.49815618512352       -0.31999792371562
C            2.19405424503560        1.22089429910353       -0.97560256751595
N            0.92538329204857        1.42973885801350       -0.78036315299796
C           -0.04848323387611        0.70888289346334       -0.25541062239833
C           -1.16605526809264        1.35405109283440        0.25519775209944
C           -2.46630379362703        0.86751044983940        0.39165142937901
N           -3.36316373930457        1.65647278748981        1.03119838242231
H           -3.09280314513893        2.57410559755523        1.33732586437188
H           -4.34176008938547        1.42253602836578        1.01436542732165
H           -1.01921077470336        2.39797701730632        0.50564711009518
H            2.66284135754716        1.92266868931206       -1.65844480061326
H           -0.54974412854150       -2.57970549331379       -1.13344830963646
H           -2.85893170020459       -2.16195865956683       -1.20393370956894
