23
 energy: -39.195024361737 gnorm: 0.000969082459 xtb: 6.6.1 (8d0f1dd)
N           -4.69816500008070       -1.13694212502678        0.71505584759393
C           -3.66497637285382       -0.73451625183838        0.41733729915569
C           -2.40635235620206       -0.21754358236319        0.04370352395404
C           -2.42985719613223        0.92155579865677       -0.88579409009628
N           -1.56614886703776        1.83736124263060       -1.01015353496721
C           -0.40782383020209        1.93492524010259       -0.28795380194780
C            0.41391240133544        0.94993482278711        0.13700196608393
C            1.67007408103698        1.33684171774533        0.78121225065319
C            2.85120671000010        0.72461712708685        0.66932132370038
C            3.10343753274370       -0.45332770707109       -0.16710072665021
N            2.29321921451577       -1.42945695107950       -0.38124074779788
C            1.00165777263731       -1.48462586625917        0.02165388005004
C            0.08749857294789       -0.48570001299913        0.13843071758311
C           -1.28145703498856       -0.85437496896585        0.44541200534063
H           -1.40260745571506       -1.76417393207443        1.02758352716732
H            0.64900867775956       -2.50758506827290        0.10897321409946
N            4.35694267842280       -0.55888798664080       -0.67251920494398
H            4.99604555798715        0.21321765928398       -0.62904959393692
H            4.54175640632950       -1.31185516208040       -1.31191015629415
H            3.71443061670669        1.13156350521839        1.18057193995456
H            1.61445152645220        2.23820303624555        1.38275970033582
H           -0.08231041920047        2.96474108181789       -0.18665938877635
H           -3.30174520786234        0.98758662699570       -1.52965838266162
