31
 energy: -48.154266634264 gnorm: 0.000692114140 xtb: 6.6.1 (8d0f1dd)
N           -4.01380228823635        0.22713243498236       -0.78122172695885
C           -2.68484902602755        0.02532807542056       -0.41827389191642
C           -2.17859706867063        0.97881397224071        0.53490531485785
C           -0.88703185177145        1.29928414636263        0.76632938739409
C            0.23641707221220        0.72431417875065        0.00732604569923
C            1.22643104321358        1.48737424939622       -0.53621629202760
C            2.37184316635601        0.94386237277611       -1.21939523897836
C            2.94967904706001       -0.25658043565290       -0.98999178461536
N            2.68549341806446       -1.10990272413880        0.03020026620078
C            1.52727825524224       -1.25704262784686        0.55731280662748
N            1.41093401701966       -1.88725046851740        1.75823317528979
H            2.24332339398490       -2.30218809358261        2.14410052423256
H            0.52676030674313       -2.31564669492695        1.97434677717424
C            0.25709434856851       -0.73240625735813       -0.01113996160661
C           -0.75202345851378       -1.54788808042725       -0.39039927381968
C           -2.04099678273607       -1.09330695625395       -0.83738122188432
H           -2.58852885090333       -1.77579870682572       -1.47830128821387
N           -0.58021680431946       -2.94403563847509       -0.33384943167302
H            0.37683666693761       -3.24071681710221       -0.47614856429950
H           -1.21780751480435       -3.44460868356166       -0.93711494485767
H            3.82090161218085       -0.54688183148338       -1.56582156490093
H            2.84926146090252        1.60254872978504       -1.93526785640718
N            1.17691657203915        2.88588411766135       -0.46587939028097
H            0.24893352326143        3.26400750235775       -0.34151483547702
H            1.69106936523819        3.34532253364581       -1.20315009459921
N           -0.55871095768836        2.25520825006347        1.70965842411421
H            0.41204454470965        2.29242946920493        1.97383744760713
H           -1.21567313347052        2.39969578237598        2.46031339923355
H           -2.93880329310921        1.50642800371548        1.09957571808671
H           -4.32239357959323        1.18657782799617       -0.78627222525082
H           -4.32623940499162       -0.30169602328285       -1.58054000274978
