23
 energy: -43.239817542898 gnorm: 0.000847441357 xtb: 6.6.1 (8d0f1dd)
N            1.95107895275302        2.79866170007838        0.92300060480649
C            1.64225738369445        1.75923131741492        0.54007315403342
C            1.29675168535290        0.46698031909840        0.10233819462970
C            0.04855771121740        0.31019830284994       -0.51665553595020
N           -0.60139773601580        1.27009125542381       -1.12341163689502
C           -1.88890772675039        1.43918993462869       -1.28209885212946
N           -2.85960996016741        1.01485672154683       -0.50714525935296
C           -2.64237526466774       -0.01480429644943        0.32866192959206
N           -1.78492515176440       -1.00667010147830        0.16143149283557
C           -0.62920667298394       -1.01496154334307       -0.45554170369306
N           -0.11796967190130       -2.10800977655938       -0.95804722996719
C            1.16164159764993       -2.39989934719222       -1.02741418356770
C            2.21090734191936       -1.83261257911063       -0.32962864712742
C            2.24828171382831       -0.57203215454367        0.29504876884298
N            3.34662384698164       -0.27058138222740        1.02500940102238
H            4.11659556099474       -0.91465984475056        1.06304641979218
H            3.48610226778948        0.66987193075164        1.35591164401704
H            3.13058447232196       -2.40186779572725       -0.28515158324790
H            1.37063256660759       -3.28565047350572       -1.61765339819845
N           -3.49438349512572       -0.12039808755604        1.36595068721303
H           -4.28139342798033        0.50357181500258        1.39107719939439
H           -3.51198234424633       -0.97393107813971        1.89567433748474
H           -2.17215799730650        2.13926860348751       -2.06007647233501
