28
 energy: -52.208018685537 gnorm: 0.000438376139 xtb: 6.6.1 (8d0f1dd)
N           -5.02767283967042       -1.40261341120888        0.94282602705393
C           -3.96304448740578       -1.07532816344956        0.67071145840104
C           -2.65281756161386       -0.65245916698939        0.34339485540557
C           -1.61630199295838       -1.49841870417716        0.63140010048778
C           -0.24524977644843       -1.32798330475041        0.30157870547721
C            0.52509518121809       -2.51354400329892        0.42199092409511
N            1.12479494385476       -3.47518313913554        0.59669245720514
C            0.44813348625656       -0.16129040719268        0.02492761050475
C           -0.12999478723039        1.16434487839831        0.14456829067858
C            0.48692110340842        2.23113215966515        0.70681115845054
C            1.79926658789566        2.28820278674149        1.26109034203744
C            2.86373147889315        1.53203067940818        0.92087194504882
C            2.90204217477171        0.49516992609916       -0.07723586472027
C            1.80510674904516       -0.26075932208481       -0.46717301408088
C            2.01966838363852       -1.26052893723122       -1.43891144664975
N            2.21325949755312       -2.01704067726936       -2.28196182703093
N            4.11388549920179        0.21986021726643       -0.60058607642843
H            4.22137097357836       -0.52750037303668       -1.26660052842557
H            4.93258263510367        0.70184816408250       -0.27563559071292
H            3.82169433411482        1.76932486249454        1.36512100379283
H            1.96462468201210        3.08960485135098        1.96909212339606
H           -0.08960654148081        3.14407683167105        0.78977856655889
C           -1.44811773630485        1.35956942113250       -0.48409507478698
C           -1.52487816117374        2.52637734956790       -1.27973339013322
N           -1.56909331896970        3.47974277065571       -1.91623250303435
C           -2.55238423863676        0.58553316821276       -0.36736208846964
H           -3.46337410243058        0.93420512833272       -0.84001821835686
H           -1.86678882242276       -2.45172447305529        1.08240454933577
