33
 energy: -57.221372010364 gnorm: 0.000801548905 xtb: 6.6.1 (8d0f1dd)
N           -3.89798007309283       -2.46715072509173       -1.00388348737256
C           -3.01071728713601       -1.82800822620114       -0.64017770341153
C           -1.91941656478563       -1.05668765385304       -0.21055505898853
C           -0.66400335598811       -1.62623078697566       -0.31485682813664
N           -0.52542591505777       -2.86122219674821       -0.84655191500738
H            0.38110264456415       -3.29210875816336       -0.86747167088924
H           -1.33306356438194       -3.38827049348258       -1.13561958257373
C            0.55852492506472       -0.97969546246684        0.14158631502729
C            1.50311235169086       -1.69981008390709        0.81360328699309
C            2.77430233074589       -1.25216008723657        1.23808643030085
C            3.47976027329860       -0.21192944508624        0.68818447672896
N            3.20922580980699        0.37266576100494       -0.50901641578362
C            2.03999834498595        0.56223867028483       -1.00026783295421
N            1.92487880641912        0.88001697504405       -2.31039666435922
H            1.06896434092521        1.29495996551623       -2.63493457942480
H            2.76463529974958        1.01442845708142       -2.84773069265669
C            0.75585114509757        0.40871123349847       -0.26745289052197
C           -0.11569199956023        1.43063562210526       -0.15015926044274
N            0.20118518483241        2.69892190685477       -0.65189968477742
H            1.18841176927943        2.91519848049189       -0.64255813747942
H           -0.35393694003079        3.44307875122154       -0.25158275644632
C           -1.43204720471707        1.31236913399472        0.46595356783138
C           -1.94063472207754        2.47686579010394        1.05669784173736
N           -2.35257757437294        3.44414511661023        1.53016199549739
C           -2.25104907812756        0.20507713928430        0.42471353544852
N           -3.48675004306357        0.26111617436589        0.99552194425154
H           -3.83642963321918        1.15169863165824        1.30757036570073
H           -4.15089648084450       -0.47032169523523        0.80810117556082
N            4.64869768519455        0.23460396316078        1.26111446978391
H            5.10209365659702       -0.38019685562547        1.91645315674273
H            5.25990010808969        0.74721693192067        0.64633323608880
H            3.24752607656439       -1.80606289434592        2.03772170622204
H            1.22606656985008       -2.69636817168110        1.14057947510882
