22
 energy: -39.503021517338 gnorm: 0.000963189986 xtb: 6.6.1 (8d0f1dd)
N           -5.02816844078955       -0.50186594131455       -0.07575573637899
C           -3.89306545905556       -0.33747218408356       -0.01725386603359
C           -2.49923477300333       -0.13673638104377        0.04780670018604
C           -1.78503714444097       -0.88744252158102        0.98207743885968
N           -0.49482019971739       -1.11457865254807        0.98241392211069
C            0.43948311967689       -0.46899024618420        0.34135711661290
N            1.50693955518205       -1.08198837539150       -0.11684839528267
C            2.74326183584671       -0.66163238318446       -0.24320875886734
N            3.54720254131360       -1.39901091551960       -1.03836004217568
H            3.17695643674444       -2.23722886678269       -1.45137495873880
H            4.53916832585637       -1.24388595503149       -1.04523653556356
C            3.30075310748606        0.43386708081539        0.48532468448454
C            2.52416912125940        1.47016825043840        0.92887439192310
N            1.30003816794148        1.76574963739154        0.50180744704281
C            0.36498725193261        0.99142040410087        0.06285101687380
C           -0.71741859410854        1.43680423053940       -0.73825635065250
C           -1.95912846501232        0.86771778044294       -0.79428976679016
H           -2.66896276050149        1.31832940115101       -1.47863524837789
H           -0.52180056915647        2.30228630163464       -1.35693927982706
H            2.95932011220128        2.23776203772890        1.55826421522169
H            4.36959647932709        0.45941982426286        0.63660778152212
H           -2.33884748588248       -1.45034105984095        1.72600728015109
