24
 energy: -47.767426051736 gnorm: 0.000954315133 xtb: 6.6.1 (8d0f1dd)
N           -0.09809049204300        3.75291870634741        0.87881730736607
C            0.13455849635270        2.66284349026309        0.60631786104750
C            0.41605729422528        1.31580457428667        0.28920455502503
C            1.65741043857591        0.79990947384068        0.68634356756698
C            2.26158654586895       -0.38529705204294        0.30802476207066
C            3.59726017268745       -0.60020196191294        0.69761214585104
N            4.68767373680635       -0.81177485047364        0.99321631845000
C            1.67242610001934       -1.41080402547177       -0.52498667614977
N            0.39198602866692       -1.67424442324425       -0.59161738167706
C           -0.60218015195337       -0.89729532712722       -0.23053363927345
N           -1.69284578986953       -1.38199228776209        0.29277851635942
C           -2.91007734918583       -0.85321252310558        0.34195231819821
N           -3.48157252719270       -0.08429672790964       -0.59586305502415
C           -2.73258526793709        0.67305433981271       -1.36524172948909
N           -1.52471366563198        1.10608007979133       -1.11866840834451
C           -0.57654865320474        0.58489834682137       -0.38511942790075
H           -3.22238656826696        1.11500400455917       -2.22517154210394
N           -3.70452971051912       -1.26334652234117        1.34245271006532
H           -4.67781374033324       -1.01671136290566        1.30922870780788
H           -3.37946674382344       -1.97384107362588        1.97393724568097
N            2.49604051733918       -2.22569291650591       -1.20281807543729
H            2.09736767288034       -2.99560246764296       -1.71230105539813
H            3.49141941756233       -2.17906645090897       -1.06250294627399
H            2.26841944177298        1.46944583785482        1.28245950878663
