24
 energy: -42.137352914230 gnorm: 0.000768538381 xtb: 6.6.1 (8d0f1dd)
N            3.70675770177154        0.73419604098820        0.79129583449919
C            2.54499725735005        0.31523484764313        0.22777361778509
N            2.13753649941974        1.05898162195209       -0.84749472853180
C            0.93201225098487        1.33392771933605       -1.12805077547189
C           -0.22893492764810        1.01886358779789       -0.28588991970244
C           -1.19161544461125        1.90475364823029        0.05677541844910
N           -2.25321270586626        1.68232387254455        0.88186848675710
C           -2.81153935945004        0.53423251532111        1.01302593783961
N           -2.70318004498170       -0.55977118031600        0.22884884282303
C           -1.63122379715003       -0.93048132560262       -0.37465592650744
N           -1.70024325361749       -1.80447894057666       -1.39880825309231
H           -0.86690202121003       -2.27183268753685       -1.70921586401377
H           -2.60057914353189       -2.14324662201704       -1.69189980119481
C           -0.27684625063914       -0.41588407106772       -0.03018004377074
C            0.77343860440659       -1.21715400840059        0.29888043597528
N            2.02728607078304       -0.79748879134852        0.63913765338300
N            0.61924491563908       -2.60322329346355        0.37873575377604
H            1.38639318668277       -3.02619196994801        0.88232500749665
H           -0.28177977107937       -2.90758732096804        0.72034215060641
H           -3.60577900056389        0.46601740594470        1.74957712903181
H           -1.07940762071110        2.94369071750747       -0.23286191636568
H            0.76094501642459        1.80175519908446       -2.09674077576872
H            4.24826775759838        1.41776889509641        0.29259721115928
H            4.18368461839938        0.08655261259945        1.39379356623760
