30
 energy: -54.871605449632 gnorm: 0.000832591357 xtb: 6.6.1 (8d0f1dd)
N           -3.00138338264385       -1.47645837524034        2.11369805127758
C           -2.10625250038733       -1.51370183863022        1.39419267632496
C           -0.92584259863928       -1.59261318840139        0.62119386408038
C           -0.47898284931135       -0.35627525156744        0.06138183934374
C            0.93972799027264       -0.09496138089416       -0.08967136416254
C            1.47611871964913        1.18957961851440        0.23178938390110
C            2.85054062041388        1.24657317971219        0.50918701981840
N            3.97591118570490        1.34258868375565        0.73892804957387
C            0.78918630351511        2.41756672520737        0.37943579288373
N           -0.37852462405270        2.75972716784018       -0.15463777983234
C           -1.31699074057869        1.95855523015558       -0.60189509531168
C           -1.46988807807684        0.56047604819852       -0.31038174732886
C           -2.76089263055214        0.05545966182469       -0.56065845689809
N           -3.81342291341492       -0.27872634829955       -0.88560910598400
N           -2.28237144053900        2.56011139081253       -1.32073264935279
H           -2.24205651166324        3.55920525681933       -1.42348158767228
H           -3.11740005109638        2.06075875640571       -1.57718578424474
N            1.40944159721453        3.43060929593101        1.01755360553749
H            2.35341712219010        3.32998152931777        1.34857343508028
H            0.96831360797627        4.33303324815518        1.01548236752449
C            1.85102918717596       -1.05770458027972       -0.50711616968240
C            1.75459093017592       -2.44709847324335       -0.66914066186741
N            2.77288799896850       -3.05326292708963       -1.33214303799567
H            3.59062942272368       -2.52713105639348       -1.58584002159675
H            2.83643099560319       -4.05575270756287       -1.34225937529855
C            0.75836963640645       -3.27534556187545       -0.12914028917975
C           -0.36682150452072       -2.86553452336417        0.54520658580977
H           -0.94677790726250       -3.64162422796223        1.03100925405957
H            0.92993731529221       -4.34093030772114       -0.20120603564071
H            2.82146953865695       -0.65626871982672       -0.77946368546761
