24
 energy: -47.758726291864 gnorm: 0.000644179793 xtb: 6.6.1 (8d0f1dd)
N            3.12500941228062        2.42951403316241       -0.55609534510472
C            2.47753233900810        1.53281214784981       -0.24395153585813
C            1.73340236067946        0.38625846531912        0.09163712325702
C            2.30037931288258       -0.88686526249902       -0.27997853536516
N            2.07172734911794       -2.04205288042957        0.31624193052313
C            1.07683589898322       -2.27220783716427        1.15279552879948
N           -0.10182345872179       -1.73650094166260        1.16246115001453
C           -0.46853334701922       -0.56980601709601        0.65098624372250
C            0.46814153589139        0.56876197943031        0.65224311773898
N            0.10095501874998        1.73473485297903        1.16502965525193
C           -1.07768027316225        2.27047133807473        1.15501550622675
N           -2.07177132008020        2.04152382817433        0.31718163735985
C           -2.29987721295278        0.88717827477997       -0.28087999399747
C           -1.73328396934657       -0.38646956102079        0.08950382840793
C           -2.47730918842852       -1.53243598874189       -0.24803091104485
N           -3.12380650528608       -2.42898581422774       -0.56302666825842
N           -3.24913516013330        0.89743810004983       -1.23029171403825
H           -3.73146869452080        1.76242995650748       -1.40741957966279
H           -3.61265269276753        0.03548842794054       -1.60201510553707
H           -1.22095312098406        3.11348844450233        1.82240234992431
H            1.21949439908667       -3.11617338311634        1.81911858347383
N            3.25051909923426       -0.89578273610608       -1.22852620177181
H            3.73301644729347       -1.76052360468088       -1.40643331999385
H            3.61437919549400       -0.03330489042417       -1.59869450356943
