25
 energy: -42.637753336917 gnorm: 0.000573490219 xtb: 6.6.1 (8d0f1dd)
N           -4.56396546642555        0.00680165204460       -1.02133069622007
C           -3.50812692914004        0.09335915639676       -0.57665207357643
C           -2.22154678904743        0.21465308212278       -0.01665146828457
C           -2.10555799257711        1.12425613441360        1.13632490647231
N           -1.10836276554830        1.82009232605301        1.48436237621991
C            0.08130942255711        1.83336572434665        0.78998004720186
C            0.69468830759185        0.79144082177779        0.20778411620748
C            2.00027604555330        0.97206892718130       -0.48924626604486
N            3.07287826769322        0.32397307030834       -0.22892560403791
C            3.16089019589478       -0.79385075870132        0.51784794208858
C            2.22866216236144       -1.76969090840084        0.63912971008431
C            0.86650246363072       -1.71361608338676        0.19294696109490
N            0.25379771303846       -2.93477161428074       -0.00527338215043
H           -0.74841953184395       -2.98238360149865        0.06501639723791
H            0.74175818109036       -3.74110150625566        0.34747716671903
C            0.14231286448584       -0.55347078496502        0.03315037280531
C           -1.21709056845380       -0.58037893440579       -0.46328569273821
H           -1.44869091762614       -1.30338457210866       -1.24207845904362
H            2.53966093226772       -2.70754328324547        1.08120133426761
H            4.15120926096104       -0.95299073570474        0.92619548060218
N            2.00832581050627        1.89008952660749       -1.47964283462405
H            2.86098484106362        2.04242689519633       -1.98987062357942
H            1.24792322616750        2.53649895413340       -1.58350088548066
H            0.57671000957791        2.79586674304549        0.84086525540169
H           -2.99938320697746        1.22290178202583        1.74574693427648
