23
 energy: -44.798247116449 gnorm: 0.000679796017 xtb: 6.6.1 (8d0f1dd)
N           -4.84086130312161       -0.06412803943496       -0.56008676180256
C           -3.71071726938153       -0.05650892403034       -0.36850334141957
C           -2.31273931321868       -0.03861610346418       -0.13585019778438
C           -1.78999183626345        1.19598828842554        0.32238819161248
C           -0.48005311801727        1.58538100524528        0.40548874889714
C           -0.22278707581220        2.91589245546187        0.81277120829453
N           -0.00083609578883        3.99086217097027        1.14462521785003
C            0.69260399692867        0.80911266713278        0.06441297732626
C            0.72792486809254       -0.62829176146627        0.27669508662337
N            1.82782925057744       -1.08161194219059        0.87782184725128
C            3.06758211280276       -0.84274241916360        0.69750232594029
N            3.61898811771787       -0.21946522372686       -0.35825004277180
C            3.01395453864331        0.80006038992543       -0.89004297966552
C            1.79268814122968        1.41425731768013       -0.51098123495024
H            1.67136827352506        2.44739670574953       -0.81250413053436
H            3.58298283433304        1.29792179582551       -1.66916515681285
H            3.76121885227596       -1.23275907838003        1.43403115472841
C           -0.29683805152761       -1.52214870792348       -0.05249185432997
C            0.07407816110614       -2.88922597743173       -0.10244520117576
N            0.36725020204932       -3.99544644116017       -0.16085955468568
C           -1.63776893903305       -1.22791675136254       -0.33894118945481
H           -2.23733935108980       -2.06979177706041       -0.66713053965493
H           -2.53100302722818        1.94733528657936        0.57377660541876
