23
 energy: -43.240116735330 gnorm: 0.000386720608 xtb: 6.6.1 (8d0f1dd)
N            4.81152715358967        0.56960207434408       -0.47716421762697
C            3.66519722254417        0.48530740888157       -0.43348525199589
C            2.27130104100485        0.34103374821279       -0.35280330158426
C            1.44802753193071        1.20501498513893       -1.06426522943457
N            0.16843586543696        1.42939815469885       -0.85828603332290
C           -0.69908714105707        0.64537631616064       -0.28114105018921
N           -1.76964072485440        1.07506740946279        0.33753606305249
C           -2.94354831494522        0.47867487729134        0.42733981883147
N           -3.77839015509393        0.96318964810525        1.37389896096680
H           -4.75123077080860        0.71579682371014        1.36132122540720
H           -3.48805578570493        1.77288006419669        1.89400570969550
C           -3.41987126077674       -0.51329931064630       -0.47478546230556
C           -2.58825005237589       -1.34079555519904       -1.18818544048318
N           -1.30909946709448       -1.59335152406138       -0.94202122752116
C           -0.46322174569451       -0.83621486028812       -0.31680990307579
N            0.59127691342860       -1.29074024225809        0.32779075765331
C            1.75536621451045       -0.71003441968469        0.49001421824406
N            2.55868330679454       -1.21840522876228        1.44697190118692
H            3.53085758854580       -0.96031546637039        1.46979906075489
H            2.25907738348724       -2.05086672202823        1.92456741000293
H           -3.01391791260153       -1.98627060338422       -1.94800215223563
H           -4.48965549876680       -0.62610868057863       -0.57990154022103
H            1.90525943720017        1.87475901105945       -1.78464461799818
