27
 energy: -50.927610886224 gnorm: 0.000304043938 xtb: 6.6.1 (8d0f1dd)
N           -3.19830239227418       -2.72503826013282        0.13994509587030
C           -2.50524603677904       -1.80736418507015        0.08099083003045
C           -1.71971433054322       -0.64308209683791        0.03589401060441
C           -2.38488895767517        0.54623701894968        0.52127373467947
N           -2.12659313566350        1.78730735116375        0.18824938266090
C           -1.06284339797584        2.13332957182482       -0.55553378965106
N            0.12904507107383        1.59398134741709       -0.54635061125557
C            0.52380783965782        0.37152066526278       -0.22601989256017
C           -0.38155078891596       -0.77165208722784       -0.35604359184254
C            0.06294959080540       -1.99026763081442       -0.91350896330121
C            1.35342543170923       -2.45953586838838       -0.99865992662561
N            2.44624053093783       -2.07694001005485       -0.36178810682315
C            2.62707510566087       -0.95334902381255        0.30251966059395
C            1.85452459729029        0.24513724881406        0.19740660572481
C            2.49920970146670        1.43859522219979        0.57180344411556
N            3.06820002521008        2.38053127094865        0.90643009692333
N            3.73696808551885       -0.92122463627084        1.07015551897000
H            4.05565252793398       -0.05560201054200        1.47113705430080
H            4.35797628298237       -1.71069811499479        1.02636555863134
H            1.51104624755216       -3.36512789669268       -1.57685450943074
H           -0.71138603663517       -2.63760730198393       -1.30648552293341
N           -1.21401277727701        3.25134539559915       -1.29123653053085
H           -2.03691826747396        3.80861265365215       -1.14566115777502
H           -0.39389082313892        3.66804039745655       -1.69576532930687
N           -3.44699336027990        0.36989413689467        1.32935966162578
H           -3.98377196586678        1.18025385922786        1.58534604240680
H           -3.81174650160010       -0.55058232608780        1.50626404689700
