28
 energy: -49.850972668778 gnorm: 0.000245901206 xtb: 6.6.1 (8d0f1dd)
N           -0.90725607829017       -3.45831731897377        1.09334566271693
C           -0.98052696541927       -2.35086708087686        0.78724032738201
C           -1.11303042633817       -0.99467084863513        0.44004500152039
C            0.05949241168398       -0.37464091597509       -0.02636747494757
N            1.01716988179966       -1.14402825611083       -0.49564721382778
C            2.29854102065919       -0.89303542395330       -0.71183840842444
N            3.09569772930968       -0.05907302582439       -0.05458653281656
C            2.56156297974579        0.95756135241969        0.62702489087375
N            1.40263712378412        1.55526876654935        0.44048859186389
C            0.25763075252632        1.08433714707816       -0.03536361210267
C           -0.68834090858935        1.98798323035739       -0.48895098081945
C           -2.07079027830637        1.81103973622662       -0.60219337774932
C           -2.82918304108343        0.75354194524477       -0.09214880122067
C           -2.42129627903990       -0.44788951246330        0.47613930544152
N           -3.38533020277593       -1.21687721486493        1.06277661995458
H           -4.35167786625248       -0.99996140831715        0.89221372205142
H           -3.15971510295906       -2.16934710846842        1.29877895628976
H           -3.90329524928184        0.90308097448282       -0.11983752411455
N           -2.76663130848823        2.82506987060485       -1.20470951957019
H           -2.28909345352911        3.69282212626617       -1.37579111721381
H           -3.76165304101144        2.87734270199054       -1.07113052906886
H           -0.31021557290644        2.98104307026614       -0.69815890682004
N            3.38124701762164        1.53428847495116        1.54051533791443
H            3.12746704718703        2.43791133149081        1.89817393731434
H            4.34863072266767        1.26452529850062        1.52484632497335
N            2.89503284561036       -1.68421141992517       -1.63743766789296
H            2.39004861465044       -2.49978690340629       -1.93854947004007
H            3.89967605652360       -1.71217813673109       -1.63133177066857
