26
 energy: -37.552015900542 gnorm: 0.000615570370 xtb: 6.6.1 (8d0f1dd)
N            0.97489320370268        2.42736417524017       -0.65354582565770
C            1.04807074805580        1.03970216806960       -0.49973843585328
C            2.29972981060982        0.45316639394186       -0.92321636267976
C            2.90330004331079       -0.63237820369335       -0.40921547152297
C            2.40802327779792       -1.45123424465681        0.66555789921851
C            1.12150709740708       -1.65095550858191        0.97221530058737
C           -0.01594200434190       -1.10295582693442        0.22536694591256
C           -1.01920938615142       -1.90607701591359       -0.18327902408298
C           -2.22480145795125       -1.51728334424856       -0.85036984935708
C           -2.85729379046778       -0.33231624909897       -0.71567194211269
C           -2.45472369994939        0.74568958901950        0.13200777732606
C           -1.19716325420211        1.03095105477790        0.53881980292337
C            0.00873528489599        0.34382945997942        0.03011478754689
N           -0.95630666581820        2.07268566253171        1.42150431480332
H           -0.02959166961881        2.10846701377798        1.81354606018880
H           -1.69913408333003        2.30099821347432        2.06340497982485
H           -3.24938712778637        1.39358947354380        0.48477663284283
H           -3.81839771788079       -0.20885060452049       -1.20005746567931
H           -2.70456618003190       -2.28908713255261       -1.43888319905457
H           -0.89487035684802       -2.97121203227951       -0.02379148322052
H            0.87237964350957       -2.29299089465457        1.80980907559697
H            3.16629039413888       -1.96423984272655        1.24505433751318
H            3.88927281356062       -0.88900283445058       -0.77576655640932
H            2.83938418907667        1.02515200071163       -1.67013411189343
H            1.55172672818890        2.79300980172287       -1.39636361090362
H            0.03514740792341        2.79597137142168       -0.66643172865781
