28
 energy: -56.221537272579 gnorm: 0.000900844302 xtb: 6.6.1 (8d0f1dd)
N            1.12180408834121        4.15595318054225       -1.00967118983950
C            1.37795380130218        3.06609560055225       -0.75958456771443
C            1.70012940479179        1.72365938722464       -0.46501395270606
C            2.96297387538507        1.24645997584479       -0.86712830002184
N            3.62525703292969        0.24333103429915       -0.37569219246148
C            3.18574834518439       -0.69631663225743        0.44443576973898
C            1.89437693921161       -1.16863814761454        0.58130207669433
C            1.70500660736762       -2.34823388606653        1.33434575310437
N            1.56058661373662       -3.26223413264114        2.01300241204724
C            0.70687793404847       -0.50581826439935        0.10295497961022
C            0.67561856214185        0.95492308521856        0.12324405169451
N           -0.33396873801451        1.58725640567287        0.68155213256999
C           -1.60047917274325        1.30696106764066        0.80214890742874
C           -2.30721471317243        0.38772922320258       -0.05228179123723
C           -3.67863329912799        0.61942593772208       -0.24198157831778
N           -4.80244782103210        0.81855308252778       -0.38441293525640
C           -1.73588470200089       -0.76148864463144       -0.60002450950578
C           -0.40209418586415       -1.23421079987085       -0.28963778396057
C           -0.20381484440304       -2.61003428470582       -0.55446456287739
N           -0.09815040372799       -3.71236598123771       -0.85816703061410
N           -2.49311927310333       -1.55420393988405       -1.37935196431514
H           -2.14995101730527       -2.45105635936653       -1.68260655453389
H           -3.45941887004933       -1.32068089776152       -1.54051336900853
N           -2.29880829677953        2.00238847125493        1.71174298814637
H           -1.82889869970222        2.72728619680132        2.22724005135553
H           -3.30362193586660        1.95518438260831        1.72847347744865
H            3.97669624010629       -1.23282851229610        0.95838623934865
H            3.51565190954336        1.84479586472047       -1.58472206142035
