22
 energy: -39.477510220828 gnorm: 0.000761371214 xtb: 6.6.1 (8d0f1dd)
N           -4.35950629938761       -0.62731228954052        0.27428131384628
C           -3.28081223892228       -0.27633422448541        0.08930565083772
C           -1.95213802209500        0.13837943532412       -0.12428599458611
C           -1.77992373475500        1.38304826892011       -0.84351269643661
N           -0.82606218088895        2.22839664007857       -0.77634711637558
C            0.29740056074898        2.06471877590909       -0.02254548042731
C            0.93059868821648        0.90947234159841        0.23683183478195
C            2.18896105175090        0.75821749426005        1.00510906739760
N            3.24882554763387        0.25714179834923        0.53206167473593
C            3.35716428596366       -0.44248733738117       -0.61231356904001
N            2.52149621466215       -1.32930038145723       -1.02726321155765
C            1.25107732878068       -1.42957750757024       -0.57197620151857
C            0.46301636168263       -0.43868008139565       -0.06669063296600
C           -0.93886210776652       -0.69494927421161        0.30031318265895
N           -1.18985212042453       -1.80009659554176        1.03182157971052
H           -2.13756223503311       -2.03749846747088        1.27658465374748
H           -0.46022972895741       -2.46947569729826        1.20323504362366
H            0.80911293375952       -2.40060834196130       -0.77051314615468
H            4.32407219846683       -0.40013471024821       -1.09699425618937
H            2.18691781986548        1.04433852884167        2.05385555049973
H            0.74530672964433        3.00186243619225        0.28529998534331
H           -2.61950158482839        1.68297313170895       -1.46390147114403
