28
 energy: -52.205212849401 gnorm: 0.000619315957 xtb: 6.6.1 (8d0f1dd)
N           -5.14436648296090       -0.28923173508209       -0.91465830635451
C           -4.03834599211713       -0.30204481350950       -0.61220800647507
C           -2.67263612537166       -0.31181622682732       -0.24765179457649
C           -2.18063744995332        0.84073838754210        0.42827433438949
C           -0.87686192533035        1.17861816571560        0.59579070370792
C           -0.57898094025986        2.27548994755068        1.43947735340970
N           -0.32911889474587        3.11784067081330        2.17688084155246
C            0.31844399088217        0.54017139831137        0.02584957283944
C            0.44278876823615       -0.89257461945945        0.17030156839963
C            1.66870479043454       -1.46191625935175        0.61141048860161
C            2.96372116024965       -1.04879095810735        0.40160116446605
C            3.37159794456874        0.02698231600870       -0.46892916236380
C            2.61732108048021        1.05201839966270       -0.90484712708365
C            1.27408503779779        1.36699618070682       -0.50942309434199
C            0.90092474913354        2.70782747589937       -0.78528310931919
N            0.62460582350118        3.77741459493321       -1.09219143225807
H            3.08496294513426        1.79268804151693       -1.54126657501959
H            4.40829020493990       -0.00382662489308       -0.77780175800260
N            3.97015226201443       -1.75940839023174        0.95791609402278
H            3.77162580316737       -2.56798631030662        1.52020712494167
H            4.92842651172282       -1.53987279639118        0.75440300228382
H            1.56162007252874       -2.39622315520889        1.15170386118104
C           -0.63345694701365       -1.75956540918406       -0.06650711047931
C           -0.32460551504652       -3.14112403930254       -0.08147782576987
N           -0.09183582546843       -4.26511889703044       -0.09247122016178
C           -1.96682372578821       -1.47654622800744       -0.43470751275505
H           -2.51936565819828       -2.31876318816259       -0.83696622618119
H           -2.92623821234026        1.50477616429634        0.84969762134390
