24
 energy: -48.532554087533 gnorm: 0.000855058094 xtb: 6.6.1 (8d0f1dd)
N           -3.83950400676741       -1.26017580814265        1.48452519409558
C           -2.79268566507075       -1.34454677056745        1.02406284741487
C           -1.49875057307520       -1.45439996782308        0.46963179201983
C           -0.85331514683089       -2.67920967394152        0.50686211713781
N            0.16526669921526       -3.06438052362751       -0.23455141036954
C            1.07851434214321       -2.34600979739050       -0.81376899854967
C            1.40934287923375       -1.00368309785155       -0.53487656252233
C            2.69018418584570       -0.57216830788774       -0.95039300821646
N            3.70567084687794       -0.24667705202798       -1.37254416229367
C            0.51844105611254       -0.04516180577628       -0.02082483376644
C           -0.93345481743584       -0.23843375024479       -0.04535648151330
N           -1.74208192984701        0.69706747959552       -0.43482208310961
C           -1.55260043294992        2.00006696422395       -0.59267014955430
N           -0.82425361409675        2.77541235297064        0.21917291840959
C            0.26394462484111        2.34316072149096        0.80208201890286
C            0.98287012053986        1.15780005613545        0.57570106024506
C            2.27467341637864        1.12080306984908        1.15225447519762
N            3.28988552646880        1.11270322609832        1.68549804097120
H            0.72365502572941        3.06790643516048        1.46632732475615
N           -2.27961970151314        2.61859824924012       -1.52655059563074
H           -2.95033274604914        2.09947414674167       -2.06623056299278
H           -2.26671024094024        3.62335932366897       -1.56118690880571
H            1.72463244453078       -2.89296097487434       -1.49295863389770
H           -1.30225998443949       -3.47707217921970        1.08934724697175
