24
 energy: -38.120012442423 gnorm: 0.000413879454 xtb: 6.6.1 (8d0f1dd)
N            1.03100507499508        1.82889913212192       -1.50332225311620
C            1.22193934085045        0.96487922684624       -0.47288360919923
N            2.40419584458016        0.76673997145976       -0.02838857892161
C            2.80190149916922       -0.27444193657048        0.74118560543712
C            2.29671049402834       -1.53175013814255        0.72540450039565
C            1.09283280505548       -1.94045310418717        0.07567621802870
C            0.03049746366470       -1.15381538376009       -0.21964984895398
C           -1.15448564173416       -1.69238017654960       -0.89668008479350
C           -2.41279178074963       -1.45001173502971       -0.50955412723667
C           -2.79552542542290       -0.59014683267353        0.59158893755297
N           -2.22690403020518        0.46864424101130        1.01770490413739
C           -1.05808660112959        0.98646971534014        0.51052318348322
N           -1.00345854906495        2.38166003814143        0.62029733842949
H           -0.09145951670912        2.74521378751914        0.86273060685213
H           -1.72618781735345        2.72375955558085        1.23903465800022
C           -0.01541513678791        0.28086297475309        0.00633673890031
H           -3.73351531686656       -0.83182263087583        1.08478837943452
H           -3.23188974178979       -1.94210735328625       -1.01932807001548
H           -0.97362002894414       -2.35738197891746       -1.73444360071237
H            0.99350547408342       -3.00041850545927       -0.12680842640897
H            2.87005523504849       -2.31250335233762        1.20703354341425
H            3.71895135290276       -0.06904306347478        1.28042676780446
H            0.12277739175000        2.24412139229931       -1.62029790838819
H            1.83435990832931        2.32853755239096       -1.84579959932419
