22
 energy: -40.286699672111 gnorm: 0.000679664589 xtb: 6.6.1 (8d0f1dd)
N           -5.51471631317805        0.05139026116365       -0.34388438017978
C           -4.37126340450083        0.02223977781137       -0.25718444137209
C           -2.96391805710255       -0.00600600709686       -0.15126910399571
C           -2.27849179065500       -1.01296773841757       -0.80361453276637
N           -1.04401161539998       -1.39369919617917       -0.51993812210284
C           -0.04467467904132       -0.73670751325436       -0.05192530653249
C            1.04254581198365       -1.40492524154695        0.61016859213381
C            2.34821286155312       -1.03572747422681        0.62323798904877
C            2.96457601134811        0.00609921939903       -0.13754476841680
C            4.37240857192951       -0.02200854309324       -0.23689111245414
N            5.51636008378279       -0.05092945118823       -0.31790800908782
C            2.28217481406412        1.01388345906443       -0.79178347890969
N            1.04639280125065        1.39426479790092       -0.51336072092183
C            0.04490366807778        0.73669134978616       -0.05079460189893
C           -1.04536889827130        1.40409236419986        0.60708559590307
C           -2.35107485785566        1.03486953183806        0.61366550238051
H           -3.03799779321630        1.66031734630444        1.17075239440810
H           -0.75779383925809        2.28411907664435        1.16729597159575
H            2.81264328537960        1.66988024077506       -1.47166155779584
H            3.03255595942073       -1.66188776650804        1.18266806895950
H            0.75236614612411       -2.28560902961381        1.16799726349841
H           -2.80584189333441       -1.66817577896204       -1.48664225259323
