25
 energy: -43.443995313346 gnorm: 0.000730932996 xtb: 6.6.1 (8d0f1dd)
N            4.87208839272260        1.72744334290275        0.85899375283231
C            3.94050070715500        1.13843482125486        0.54347457432341
C            2.79471701344502        0.40258568737084        0.14751784640136
C            3.05993840174498       -0.66865774318502       -0.79900756964517
C            2.31856912623369       -1.77573111760454       -0.95738194554193
C            1.12759929163022       -2.10762199648968       -0.21912041075374
C            0.24770892247668       -1.24364902241394        0.31274958186131
C           -0.89019919464875       -1.70422571442934        1.13303335370369
N           -2.11789605650727       -1.46460140954870        0.93945327129183
C           -2.66334505692974       -0.60185161958718        0.04979742652977
C           -2.10369384339344        0.64506282663619       -0.20719884873699
C           -2.94021801971692        1.63497290226937       -0.75384417596424
N           -3.63950074120009        2.43125878167062       -1.19950147859089
C           -0.76527352136968        1.02836730395006        0.11469347103451
C            0.30646940884493        0.21420816476884        0.30269968078486
C            1.60083418986425        0.79312383138198        0.64386239411523
H            1.58314126686122        1.63872077714899        1.32294648161078
H           -0.58107145030696        2.09589984145527        0.11382819229845
N           -3.88348897488063       -0.96010027390805       -0.43325938309947
H           -4.46270896057602       -0.24785405043504       -0.84645276180828
H           -4.33985682812780       -1.74290574274489        0.00273511838714
H           -0.65390151544145       -2.29982341346646        2.01077693681866
H            0.91618007528509       -3.16540469668029       -0.12049846478566
H            2.67190578748344       -2.53664507796407       -1.64095517385692
H            3.98381788128178       -0.56757668697616       -1.35334126228597
