22
 energy: -39.493385418429 gnorm: 0.000701340583 xtb: 6.6.1 (8d0f1dd)
N           -0.87920143170672       -3.44457559741336        1.08497448600519
C           -0.31879136998282       -2.49932955733995        0.75353659448762
C            0.37577503578619       -1.33342981009903        0.37580753545138
C            1.74367387438478       -1.29700781645190        0.52326334689521
N            2.61511434342614       -0.42116919303524        0.04059408987159
C            2.39922506398859        0.82914404689238       -0.28195895903804
C            1.24836432504206        1.61082457458049        0.08454569424270
C           -0.01544094183694        1.12460528551883        0.17740323690104
C           -1.09510382794605        1.86810130472131        0.78116797418544
C           -2.42972927421016        1.75406309463968        0.53907066921882
N           -3.05312174525955        1.15851248613963       -0.49875562960312
C           -2.47789145024283        0.25548746770114       -1.22423215548332
N           -1.44576093175474       -0.50886343038781       -0.88940696930256
C           -0.41118957401322       -0.25133117543235       -0.17414122278851
H           -2.97628357392090       -0.03042077042240       -2.14407550475936
H           -3.10938579136372        2.32488443716219        1.16294230674973
H           -0.78573557521734        2.54391740169228        1.56962963653953
H            1.40893385905955        2.66699378023448        0.25966624012440
N            3.41951386228542        1.46315350785513       -0.89036849064735
H            4.25016342285572        0.94028785159863       -1.10742340133428
H            3.36818827484207        2.43988637058783       -1.11482085326663
H            2.22022488708504       -2.15760594154336        0.98298315245095
