20
 energy: -36.036778121410 gnorm: 0.000737906920 xtb: 6.6.1 (8d0f1dd)
N           -1.59866101209951       -3.17151781687584       -0.37560167589553
C           -1.41302956208668       -2.04351330753110       -0.27607128601005
C           -1.21093729466420       -0.65076344983213       -0.17341357117972
C           -2.27202393053172        0.20068082591775       -0.59258538629206
N           -2.50985421641414        1.40857482512019       -0.21594156518462
C           -1.72029442707658        2.23163060574675        0.48534150604602
C           -0.35753039118634        2.25507500074680        0.52253322724916
C            0.49750144308732        1.18023406284335        0.12556180802339
C            1.77242842501873        1.41296914244392       -0.35894207356582
C            2.73684583319611        0.45090241194931       -0.73457922938436
N            2.93474246422248       -0.73937279466901       -0.24595500468596
C            2.14173875606400       -1.20237107691032        0.73354065399825
N            0.88004485091415       -1.04490248942404        0.85940302569968
C            0.03615380403330       -0.20290066002236        0.25183173064720
H            2.62648798841070       -1.84680254621432        1.45975204590384
H            3.48615906557869        0.76533895568853       -1.45505913799855
H            2.00671737254161        2.44285843836465       -0.59940518597856
H            0.13317621430991        3.15059455004395        0.88158695151187
H           -2.26907436153895        3.05457466971726        0.93090517262179
H           -3.03529224127805       -0.23984883840371       -1.22729164562620
