24
 energy: -43.744171857895 gnorm: 0.000644394526 xtb: 6.6.1 (8d0f1dd)
N           -5.69640961721458       -0.52262856049717        0.08515698643159
C           -4.56331513161389       -0.33626993389048        0.09520210778939
C           -3.17278030416656       -0.11006532920904        0.09669900531099
C           -2.68056464687945        0.95634336735248       -0.69020628029691
C           -1.42845219582635        1.51437659765290       -0.66709652736104
C           -0.24174912961202        1.01786771443007       -0.07297369506489
C           -0.16978319905974       -0.42945123449191        0.17929122757833
N            0.83706617206286       -1.14700359750642       -0.28849779775972
C            2.10655197117913       -0.88350047535451       -0.34454208195878
C            2.74694003271298        0.21917439042919        0.35129227053346
C            4.11367299612023        0.07543145460805        0.64023126230999
N            5.23040033310043       -0.08227960134069        0.86496818502428
C            2.13188581936226        1.43499935838706        0.58205483208697
C            0.83554700302689        1.82962673214352        0.23938120640713
H            0.64238466329692        2.89481647417717        0.26752911203679
H            2.77248626545863        2.21122799271511        0.98490354749539
N            2.88656502471927       -1.71247125032450       -1.05789576597931
H            2.46645372264015       -2.51750594815646       -1.48988085489895
H            3.88863093930096       -1.64640313445749       -0.99819612266635
N           -1.09592602720325       -1.04338713007937        0.85885444911003
C           -2.38118263799474       -0.86362737966572        0.96736470316720
H           -2.85870742526665       -1.43444571216537        1.75624467518866
H           -1.30570027890048        2.44443833593798       -1.20987892912400
H           -3.42928703833918        1.47443150760932       -1.27809322406075
