30
 energy: -49.250194728021 gnorm: 0.000787983589 xtb: 6.6.1 (8d0f1dd)
N            3.60487085788571        2.41714606809202        1.44553587268661
C            2.90975881289748        1.63739811112463        0.95824347141527
C            2.06760332614568        0.67853001438570        0.37721570076908
C            2.55683571811135       -0.60420173738795        0.21425155329730
C            1.86851187864717       -1.67119254303472       -0.44286130085651
C            0.53188959238997       -1.84743259967179       -0.60272860034933
N            0.07018181240574       -2.97090564587607       -1.23211667925475
H           -0.90189669877233       -3.01463791892779       -1.48165097958611
H            0.71298815021076       -3.53289623863242       -1.76357394181922
C           -0.51492360731788       -0.95329673717567       -0.08867040039247
C           -1.61093758626769       -1.48327930679185        0.50249822469277
N           -2.67261750186699       -0.86172491114276        1.07441384248185
C           -3.15765915463258        0.27083551256374        0.68380439751280
C           -2.75192503865162        1.06888355466727       -0.45004831022578
C           -1.48964741375363        1.16425627721542       -0.92761991350081
N           -1.19651559538315        1.99296523442466       -1.97716026074000
H           -1.94886061063637        2.33260548301834       -2.55186255846295
H           -0.28831898985590        1.92055545772920       -2.40145302361936
C           -0.32743296776163        0.47978004697821       -0.32705670296466
C            0.80476747895046        1.17320878564555       -0.10919899959091
H            0.77478438427931        2.24615985189352       -0.26367196228311
H           -3.52311256926829        1.67935474431550       -0.90388269341628
N           -4.29549135043529        0.68830483213335        1.32485916279269
H           -4.50638798432500        0.20425193261768        2.18194784502959
H           -4.53584314878914        1.66359436656335        1.28337717276463
H           -1.63509886485397       -2.55588400909505        0.67082721729691
H            2.51192735680442       -2.46664382364200       -0.80316774590845
N            3.85961195191339       -0.86912046377872        0.55090456782798
H            4.13803305947514       -1.82813052369015        0.66376537292204
H            4.34485093525459       -0.18627266231792        1.10987758647985
