25
 energy: -47.473127544382 gnorm: 0.000272431840 xtb: 6.6.1 (8d0f1dd)
N            4.83393812914560        0.72781472728008        0.57546757254047
C            3.68952839471743        0.66480862869916        0.48447830357483
C            2.29034689865050        0.56870447507922        0.36196909765434
C            1.53996634457385        1.57850981327142        0.98539920658363
N            0.31091415206998        1.92692705698214        0.75440465887136
C           -0.58213235769777        1.25206492546844        0.05157063248807
N           -1.43127360972121        1.84164376735868       -0.72738818510560
C           -2.62416539857370        1.46871586925706       -1.15819198036764
C           -3.48522439945003        0.60818866562656       -0.52223511718520
C           -3.03275757872233       -0.29599264253261        0.47542178255431
N           -1.79759154638243       -0.75454957032970        0.53275364078964
C           -0.67141529538972       -0.23171258003518        0.13297913832292
C            0.43058148131112       -1.00806356553824       -0.25920112666766
C            0.15448952288326       -2.33018236117003       -0.65810332473809
N           -0.04930078561368       -3.41112131717460       -0.99162855488499
C            1.78407748730725       -0.58266906450004       -0.30105140141182
N            2.67375734010137       -1.40189870801256       -0.89742284192391
H            2.37518439532010       -2.29746912876775       -1.24751122951729
H            3.65913236938376       -1.20594653528956       -0.82961327250211
N           -3.91661268345407       -0.86099749030694        1.32556273294905
H           -4.90179670864524       -0.72177520501076        1.19206437030964
H           -3.60638593065833       -1.62314765811681        1.90325210453381
H           -4.53112873780859        0.59867535053544       -0.78964828842064
H           -2.96336926840744        2.02157073064654       -2.02655063433550
H            2.06928944495827        2.23004945803123        1.67347051312048
