21
 energy: -34.979676707889 gnorm: 0.000706894366 xtb: 6.6.1 (8d0f1dd)
N           -3.14188250586587       -1.29966878684404        0.87576943602336
C           -2.17140561488037       -0.58710368286383        0.25936166607926
N           -0.98032268192609       -1.14581467395335        0.25382505465465
C            0.13584039181955       -0.56644812142637       -0.13848820122276
N            1.03986657943269       -1.20146679644269       -0.81311814075802
C            2.34257369515209       -1.04632418380844       -0.92806477684197
C            3.16868652902658       -0.45437760900168        0.01012339130292
C            2.64770495895542        0.40685721582651        0.98491926722319
N            1.51530887152859        1.04461521185682        0.91122515145049
C            0.45218582398236        0.86579541361495        0.15925738669229
C           -0.37310262730543        1.85991963157008       -0.32714270415514
C           -1.71460076579128        1.67705289871459       -0.68283850140389
C           -2.54296881879582        0.61945141920752       -0.39913778152396
H           -3.59634438131235        0.73261673027233       -0.61936897310590
H           -2.19139548960454        2.53627009583637       -1.14014072171110
H            0.04008173250762        2.85519614912966       -0.41701516032861
H            3.26020629117940        0.68410233538927        1.83685868520293
H            4.23036554356165       -0.64726697023004       -0.01044354916842
H            2.76844570116938       -1.55184876560299       -1.78822572518132
H           -2.90407633812131       -2.20507387646476        1.24108747897334
H           -4.10786515711187       -1.05049034507986        0.76630386849892
