24
 energy: -42.949203123800 gnorm: 0.000673885746 xtb: 6.6.1 (8d0f1dd)
N           -4.75621123727597       -0.96860410945314       -0.22162779209221
C           -3.63075717729820       -0.73089152463456       -0.25854994350073
C           -2.26073057008011       -0.41850413723493       -0.28744286558669
C           -1.85052033141155        0.76672052249509        0.41039771559822
C           -0.63207373209473        1.41615755174944        0.23955706499177
C            0.51049630368532        0.90909594313213       -0.38079599177414
N            1.44016875339871        1.66850872598354       -0.89406225232447
C            2.72099372504190        1.43257216831945       -1.09668586729590
C            3.51363459058431        0.54325935382124       -0.40291918340114
C            2.95449359949563       -0.49829731721590        0.37427848924729
N            1.77024841629126       -1.03810139621518        0.15495806009617
C            0.70442163641872       -0.56550217725975       -0.43023623301867
N           -0.14962564044011       -1.36803331446172       -1.02280512193965
C           -1.44820539222133       -1.23448089761197       -1.07338849525441
H           -1.94179790273358       -1.94301576693050       -1.73141318453137
N            3.69666441440013       -1.08636866672974        1.34483216951477
H            3.34698602788728       -1.93617265861209        1.75335874128940
H            4.68158549268302       -0.89833382800103        1.39864663954185
H            4.58683707528030        0.66228083896513       -0.41638845623905
H            3.18663846363137        2.13228508778388       -1.78235732975544
H           -0.55687197069040        2.42548210762386        0.62508591926225
N           -2.78386839276775        1.36286657042776        1.19374252990712
H           -3.72962753635727        1.01809848595974        1.19001296293251
H           -2.61409579622517        2.28579586150615        1.55245990333214
