21
 energy: -39.005807598325 gnorm: 0.000409723546 xtb: 6.6.1 (8d0f1dd)
N           -3.26717022914441       -1.37780751611264        1.14815911923935
C           -2.36332347006498       -0.74585278593069        0.36542349580517
N           -1.12044441144932       -1.18447073484537        0.46056712837657
C           -0.03217748983938       -0.57635393879280        0.06881459884987
N            1.04440076345244       -1.19882004550362       -0.33913093215499
C            2.27552513601440       -0.69756988185265       -0.29603262283656
N            2.77564234477487        0.14864378100385        0.61186636077160
C            2.01201486328621        1.00488005378389        1.25554544452203
N            0.84371714804982        1.48757785873901        0.92104250684711
C           -0.00957159225102        0.92237741596857        0.08761918661776
N           -0.82145094645825        1.56735082661121       -0.69244650081352
C           -1.99474091775625        1.15454655098874       -1.14998008815421
C           -2.81596638953710        0.20730728341113       -0.58629576452130
H           -3.86025699456221        0.18441911286662       -0.86486288956355
H           -2.36923479944684        1.75187531923102       -1.97386014940395
H            2.47656983005882        1.48004760495206        2.11409672980837
N            3.16590811872127       -1.23303250729890       -1.15320774229443
H            2.88795479562543       -2.02375081295217       -1.70686770523377
H            4.13998641395481       -1.03701493010600       -1.00554983635198
H           -4.25017917377123       -1.24640264583449        0.99511374753564
H           -2.95507089355741       -2.15584229332738        1.70259862655430
