20
 energy: -36.046714551919 gnorm: 0.000853815161 xtb: 6.6.1 (8d0f1dd)
N           -1.92694567614712       -3.09893745009405        0.72031002623881
C           -1.65429273448990       -2.00121531266551        0.52632717241911
C           -1.32933415850018       -0.64850965319278        0.27831241533963
C           -2.36575475112022        0.28762329106173        0.50583914628513
C           -2.44512836516919        1.58714296930866        0.07034431393250
C           -1.44073278080019        2.20301221345213       -0.70730841276886
N           -0.18189916145720        1.93804937155517       -0.67066784248459
C            0.48314779390978        0.99990954707486       -0.01871348859260
N            1.56962715266471        1.28650489363038        0.63944557253815
C            2.62738038487570        0.53786836665548        0.83229383294278
N            3.06263009909745       -0.44477747879129        0.08480732392834
C            2.27063724065792       -1.21244415019538       -0.65795677016465
C            0.89338151192580       -1.33595375443743       -0.62101881928150
C           -0.00785890560297       -0.38396167037518       -0.10075880016499
H            0.45814370771707       -2.21519660736200       -1.08043110599953
H            2.82030595645024       -1.93382934213770       -1.25415862701307
H            3.29178821601677        0.86360581103915        1.62572817168375
H           -1.72695623564163        2.99045765826901       -1.39633615899143
H           -3.38072235944437        2.11233176428523        0.19225122855094
H           -3.25432679004117       -0.12812149338085        0.96756527190214
