31
 energy: -58.607620124295 gnorm: 0.000817039863 xtb: 6.6.1 (8d0f1dd)
N           -4.88848449156897       -1.33905026056096       -0.40702104770685
C           -3.80624440369001       -0.98044312460962       -0.23923888870651
C           -2.48962205880931       -0.55669049011332       -0.01891080182198
C           -2.10507371787020        0.70062175225112       -0.51041880070111
N           -2.99881726411174        1.38762179872135       -1.25847978371883
H           -2.81420311214423        2.34707208077056       -1.49916683010696
H           -3.92948534912748        1.02425475729695       -1.37888957437525
C           -0.88011754851906        1.36118217333909       -0.20338554043392
C           -0.84014667521375        2.74483202721515       -0.46500528063707
N           -0.83946948591359        3.87214876427504       -0.69346020028365
C            0.32794174776497        0.82122280732321        0.27147518623579
N            1.23774632110122        1.66665850699347        0.70738015155159
C            2.54843389352072        1.58785248984798        0.72953885143575
N            3.16438131221847        2.50065590231280        1.52021412899754
H            2.59021247600587        3.21873688833160        1.92794482640571
H            4.14571164772315        2.68059783868985        1.40651045351985
C            3.34165174401950        0.73492174492147       -0.06666568020608
C            2.95117283840547       -0.49113252806463       -0.57107289415404
N            3.82129434755902       -1.17505718131649       -1.35799585176960
H            4.76087901892358       -0.83682349405744       -1.46624718866602
H            3.63414543321011       -2.13825457822602       -1.58077883444760
C            1.72546415467928       -1.16529692124606       -0.24880662837860
C            1.69432258930346       -2.55007587575536       -0.50161419314486
N            1.70716588778668       -3.67889841002399       -0.72238127962308
C            0.53982398607744       -0.62961081599126        0.26279550272952
N           -0.36208208650015       -1.47180425115624        0.73976704918501
C           -1.66344672670942       -1.40891293476591        0.78544256057383
N           -2.27237923803873       -2.29883682994279        1.60001771137470
H           -3.26098726731719       -2.46219507946343        1.50932968672678
H           -1.69874099921835       -3.00753027925536        2.02445673594993
H            4.36224129935793        1.04354681852546       -0.25048694004263
