28
 energy: -55.450183828363 gnorm: 0.000869911966 xtb: 6.6.1 (8d0f1dd)
N            5.17642689723700        1.08047958116866        0.63510155997549
C            4.03793521097954        0.96099666213168        0.53335748110585
C            2.64653921465950        0.80358451158289        0.39028288670524
C            2.19154177094559       -0.23593242540660       -0.47170605479736
N            3.11553694459365       -0.86048552254451       -1.23270634724472
H            4.08709289764029       -0.61520370621865       -1.13567237020758
H            2.87220348468500       -1.70226008955889       -1.72903205524501
C            0.87155857193927       -0.74707474847240       -0.47414034879455
C            0.68632827327029       -1.95625245325297       -1.17786807034429
N            0.57726343205060       -2.90874114468455       -1.81174992135365
C           -0.29915771703371       -0.15944635685433        0.05862037411464
C           -0.33038471643220        1.31001440517942        0.22204207091977
N           -1.26548667576700        2.02550309333871       -0.35508326283175
C           -2.49179768291993        1.64234046148817       -0.65073093156154
N           -3.22714686836011        0.74067645155543        0.00786428409078
C           -2.74993748698638       -0.33464610965468        0.59245300293562
C           -1.43212823640094       -0.89558823447832        0.39786058634974
C           -1.30886738014695       -2.27142224797141        0.66434295526152
N           -1.26924074705933       -3.38071379343195        0.96565975867437
N           -3.62193817129319       -1.03479249549968        1.33672782647181
H           -3.38260139892076       -1.95054329092441        1.67824873700477
H           -4.57487820970974       -0.71691451916052        1.37654788934557
N           -3.13472934421408        2.33750599798122       -1.60427116615573
H           -2.68597475680676        3.14659725248546       -1.99602573246472
H           -4.12538833951019        2.20930461960655       -1.70905904093596
N            0.57449626348342        1.90341821613208        0.95833275177406
C            1.82492397721155        1.61956090744167        1.17052342918368
H            2.28370283966538        2.17489816912315        1.98181579432381
