29
 energy: -50.330692535671 gnorm: 0.000864327544 xtb: 6.6.1 (8d0f1dd)
N           -4.61334304089828       -1.64651182385457       -1.43043863432788
C           -3.66775745536428       -1.16888679405594       -0.98307928830110
C           -2.54871668401311       -0.54331830185212       -0.40504487356284
C           -1.30344307513347       -0.88740805324414       -0.80836828038989
C           -0.05422201925120       -0.33940202897290       -0.33091199222156
C            1.00435562499793       -1.17982246707630       -0.20680473706377
C            2.32828764013612       -0.89325305754211        0.24558879227728
C            3.06373316976268       -1.99115277677101        0.72066485371731
N            3.68568315115641       -2.87758796114973        1.11258800309986
C            2.98543134584860        0.32826289529309        0.15628534848731
C            2.44508478923927        1.49497427236797       -0.46361947937119
C            1.14253586210970        1.84115876931416       -0.63051978684951
N            0.83563679922766        3.00506982341155       -1.27240217589416
H           -0.12081897680940        3.18292273507396       -1.52225119417838
H            1.54952526865191        3.47563993610976       -1.80160249445824
C           -0.01721998123011        1.11101590165787       -0.08842627909284
C           -1.00774763474550        1.82571179073486        0.48543223492364
N           -2.16088702458766        1.40130817834755        1.08091441171894
C           -2.83428694361605        0.37017365768336        0.73410946423710
N           -3.92388843022237        0.04095042118440        1.46882368487431
H           -4.59730582549546       -0.61826591907640        1.11904018583849
H           -4.19222511184120        0.67022217438128        2.20536717509805
H           -0.86542962348026        2.89259098801723        0.62173509156624
H            3.18472172953318        2.20503361205861       -0.81703739473099
N            4.28220560178921        0.40848907936953        0.55050960243236
H            4.78719188370373        1.27174454209818        0.47825563600636
H            4.73528971964155       -0.39469642591257        0.95047637199853
H            0.81374391878323       -2.23291952900352       -0.38294403967297
H           -1.22641242569320       -1.68495673219824       -1.54157579257083
