24
 energy: -42.958345386226 gnorm: 0.000462822626 xtb: 6.6.1 (8d0f1dd)
N           -2.01027179636392       -2.56990252924057       -2.01994197366629
C           -1.89175482674500       -1.61515087173430       -1.39056427071989
C           -1.74189175692905       -0.46013938963145       -0.59707445528517
C           -2.83764863934903        0.38437021408519       -0.50634233015619
C           -3.00483842216568        1.48111081788726        0.33774422030408
C           -2.00283134748396        2.01916335769887        1.12698321966196
N           -0.71041502661849        1.92154976237303        0.92880945234070
C            0.00289964113949        1.09727904063765        0.22174899484266
N            1.15030044986982        1.51262395277831       -0.29110650187562
C            2.24082584119725        0.80607666603267       -0.45110821305387
N            2.61518196589176       -0.30084773418467        0.21800700710931
C            1.77716797546238       -1.23066776532659        0.61264188836832
N            2.32314118236806       -2.24798061906514        1.30802249498855
H            1.78481161904822       -3.06279274957315        1.53911414630312
H            3.31416147609700       -2.23968782437736        1.47229141540951
C            0.38722584096439       -1.34273591474859        0.27452505542976
C           -0.44045460584671       -0.29581889068162       -0.01204145068924
H           -0.02517908355106       -2.34433678820886        0.26336146771438
N            3.17908446774932        1.30913903941033       -1.27760028911813
H            3.03574030022359        2.22657365379340       -1.66042196589734
H            4.10158791192759        0.91359769679044       -1.25073830449201
H           -2.27189605594094        2.68488539053007        1.94030968958959
H           -4.00084918001056        1.88917769736239        0.43245985324100
H           -3.70790598723593        0.07358561889238       -1.07385046554845
