27
 energy: -46.099835515442 gnorm: 0.000793325207 xtb: 6.6.1 (8d0f1dd)
N           -4.52803167365414        0.05833388571178       -0.72354784351773
C           -3.46066612058917        0.25328238844023       -0.34037708104494
C           -2.14802981250928        0.45487612156387        0.12469073416457
C           -1.16545469897918       -0.35727055857482       -0.39122491660640
N           -1.39966162136327       -1.17180049497817       -1.45320722824169
H           -0.76360637279583       -1.93575300206440       -1.61246099754807
H           -2.34039216781347       -1.25410567981238       -1.80525929986395
C            0.20705060022923       -0.36896439003558        0.13720799894560
C            0.84915279099098       -1.53779478495933        0.45318376034882
N            2.10281560222929       -1.66258670793093        0.97076155347622
C            3.06140958571215       -0.82581891016449        0.77319847212357
N            3.13947742609821        0.15456992389037       -0.13542952692615
C            2.14022207682008        0.84748854029531       -0.55462553798309
N            2.21481979543438        1.51235870364923       -1.72122974633287
H            1.51161140221360        2.18510599511122       -1.96887415437666
H            3.03961901908828        1.42153988855329       -2.28918177165257
C            0.85188658691394        0.93512119163476        0.18679662337561
C            0.37894087323452        2.06480188951762        0.73317934678813
C           -0.88961634684049        2.20076852109083        1.39420444497909
C           -1.99493049382176        1.47972195270249        1.13074320042420
H           -2.91286060455458        1.74283097897900        1.64221235536470
H           -0.96423644208014        3.00690823045860        2.11163110562265
H            1.00237653004910        2.95026818216127        0.70386549174894
H            3.98898822379682       -1.03103843104214        1.29594712302635
N            0.19059205660388       -2.76745916655140        0.33927823789774
H            0.72309297812133       -3.49500600301593        0.79730086422515
H           -0.77529827163297       -2.76183410003122        0.63834597778456
