23
 energy: -43.239964494026 gnorm: 0.000531175406 xtb: 6.6.1 (8d0f1dd)
N            4.77291374982820       -0.06973806244416        0.83219769015931
C            3.64127745306773        0.03240598704617        0.65282672566401
C            2.26212406325390        0.11704333495736        0.40710012141427
C            1.51008148342570        1.10877343179317        1.03984204092061
N            0.32658735479812        1.54658526348682        0.69336745672736
C           -0.56437747795578        0.94853537922786       -0.06228979777474
N           -1.41496707442889        1.56814426238342       -0.82667114306853
C           -2.62486691798695        1.16735013968416       -1.17985533433144
C           -3.42457827197157        0.26322959596687       -0.51786711318246
C           -2.92347657215047       -0.66392170602019        0.43151627867561
N           -1.68185207811837       -1.12431866822386        0.44953167455032
C           -0.61124300440942       -0.55017422129126       -0.02326903200891
N            0.42178027390312       -1.21296399346553       -0.47656623711479
C            1.68552849618012       -0.83709845988553       -0.49560725356448
N            2.49514404573534       -1.50737459148552       -1.33931034296911
H            3.49303588158378       -1.40954450246590       -1.25927481186377
H            2.11136893219799       -2.27675291296883       -1.86020852184082
N           -3.77638870196432       -1.26076584431248        1.29192590727183
H           -3.43489992264980       -2.01324650995488        1.86358730669966
H           -4.76442612064809       -1.09619962539846        1.22815282529130
H           -4.48656486981464        0.25623596586716       -0.71795956967295
H           -3.04553719094093        1.73854549223512       -1.99985057156819
H            1.98149514853765        1.67744996148260        1.83435345049867
