25
 energy: -49.038665477120 gnorm: 0.000797229661 xtb: 6.6.1 (8d0f1dd)
N           -5.35379302623546       -1.23292521141376        0.45895655487266
C           -4.27683924213027       -0.90249589290423        0.24463304288197
C           -2.94667216145539       -0.50918355495322       -0.00428585283390
C           -2.14525092437420       -1.28958648065068       -0.88117706662796
N           -0.86826806419917       -1.27109835264503       -0.87255426068988
C            0.08877230244653       -0.58975170111301       -0.28046092043660
C            1.19801681421254       -1.31039562839877        0.22540766668403
C            0.93736659768876       -2.66769112333124        0.53605005492004
N            0.72143464019812       -3.76017954881269        0.80768765093152
C            2.50353815312959       -0.86259591544244        0.39797015781356
C            3.04870365726168        0.35462979460070        0.00478252829611
C            4.45275967732484        0.48458309694967        0.14297451733091
N            5.58887222306675        0.59326018355105        0.25042460963079
C            2.37504126108963        1.48140036323065       -0.51126251448867
C            1.02754672935335        1.72114213990547       -0.57226420499240
C           -0.03768446662894        0.85014431283710       -0.24970271505864
C           -1.28826088138290        1.38061144519123        0.15761599216728
C           -1.28933313276822        2.76055738457084        0.48289153133093
N           -1.31823536970246        3.87759454221415        0.74072689090991
C           -2.50676664315743        0.73623943738514        0.42668495184628
H           -3.24407766471470        1.34885157118989        0.93492219279244
H            0.73264243481729        2.72163207157325       -0.86478395877538
H            3.01982451285421        2.29847033557015       -0.81210375743057
H            3.19698904599049       -1.58958424012086        0.80629551765595
H           -2.61789231948741       -1.93851608438388       -1.60919148272765
