26
 energy: -41.575010358152 gnorm: 0.000444395591 xtb: 6.6.1 (8d0f1dd)
N           -3.91626902261237       -1.18520996484761        0.80229230013868
C           -2.87302058342201       -0.45421188330456        0.28599121981833
C           -3.21026860204451        0.77462685850370       -0.31385003261962
C           -2.30956760055474        1.57625956710206       -0.98055142623808
N           -1.00828831874221        1.63061773687642       -0.85415911876422
C           -0.12966578865479        0.82809109050656       -0.27753586694707
C            1.04803721686754        1.44309228808348        0.15471402055227
C            2.29913215610829        0.88311329308643        0.41201694118834
N            2.77405445080413       -0.31722405420433        0.08584512460675
C            2.04950258837304       -1.35381059956910       -0.30970864908796
C            0.66099112130645       -1.54393756104622       -0.28552825570711
C           -0.35967688999480       -0.60954553639520       -0.12824019304319
C           -1.63293319560665       -1.08251835696316        0.23474858717469
H           -1.63558987917501       -2.10803748866996        0.59186306993770
H            0.34580694753537       -2.57702373840434       -0.38580341174560
N            2.81561404836561       -2.43608318900016       -0.63901492873900
H            3.80260634262653       -2.27498100370968       -0.73783893620097
H            2.40429683635814       -3.20409905461794       -1.13753860267778
N            3.24162911429545        1.67976896682893        0.99594521197954
H            3.08852710528356        2.67127040496488        1.04201251608783
H            4.18977349912655        1.34609640045650        0.97076396275931
H            0.98235551632509        2.52108606094140        0.23816035719049
H           -2.70546992729605        2.34851056633990       -1.63585180844849
H           -4.25889979652892        1.03683912059740       -0.34901811285229
H           -4.76357143755090       -0.69655985591278        1.03431719606658
H           -3.69806947549237       -1.99189877734237        1.36167918547081
