25
 energy: -43.454316117122 gnorm: 0.000766486359 xtb: 6.6.1 (8d0f1dd)
N           -5.78987442540419       -0.08900053083242        0.45777664518323
C           -4.64879578649261       -0.05495834101998        0.33052913755322
C           -3.25108153823589       -0.01666692743679        0.17033455542915
C           -2.64289002241007       -1.04191766169683       -0.61388975508005
C           -1.32703122223811       -1.36465105560887       -0.68119174691990
C           -0.16466669129651       -0.68053044361536       -0.16685495634713
C           -0.29406328038384        0.77125337857048       -0.04724869941469
N           -1.30805638186277        1.34041260107795        0.51581148915796
C           -2.52912153231822        0.96479798973337        0.82501511724354
H           -3.01694117815024        1.58706952270202        1.56701349356584
C            0.71858486728831        1.63414168729652       -0.57501267999900
C            2.05770909596509        1.42034126121311       -0.59008916400111
C            2.79610087032436        0.32207894041500       -0.08109114780989
C            4.18694500662092        0.51767186344338        0.01809625681204
N            5.32581794589198        0.65200094296442        0.10594547219283
C            2.30781969432562       -0.93997394948664        0.28364298943740
C            0.97901903418605       -1.39213252669984        0.05725214412453
H            0.87123222232455       -2.47165115870321        0.06839584316546
N            3.17903637833499       -1.85352535370985        0.76712651046701
H            2.87825126470262       -2.78951480380117        0.97076270513149
H            4.15307153690606       -1.62128161926039        0.86569618551096
H            2.67424428464195        2.22997824300970       -0.96318294610576
H            0.35619920775173        2.59987755800657       -0.89996204596732
H           -1.07940088355821       -2.24661908549017       -1.26096655029133
H           -3.33546703701685       -1.70065263717067       -1.12411484193895
