32
 energy: -63.915021540532 gnorm: 0.000597908576 xtb: 6.6.1 (8d0f1dd)
N           -0.33409179371104       -3.56101469431565        2.02780834477585
C           -0.65055593599631       -2.65516311934387        1.39861256334197
C           -1.06006468760457       -1.48214055877590        0.72239262149270
C           -2.42170942384852       -1.26981089130490        0.64721536280933
C           -3.12096199341019       -0.24409790431826        0.00752767885741
C           -4.51004664305335       -0.44825319251517       -0.13772071440024
N           -5.64207445883560       -0.59635507213454       -0.26491839846528
C           -2.61647527071935        0.99450515299382       -0.45813738977637
N           -3.46322330596382        1.81507865679622       -1.11025591552430
H           -4.43166159246679        1.55884526424298       -1.21374752898126
H           -3.17683942705849        2.75020691297917       -1.34970450322688
C           -1.31341471464763        1.48122711171518       -0.18430905017147
C           -1.11191966185149        2.86454025083224       -0.39139426140291
N           -0.97339476127865        3.98918840227729       -0.57902180740400
C           -0.16487110375864        0.80185980007937        0.25424071303717
N            0.80124073030623        1.55107958243221        0.74998568474463
C            2.09811521362232        1.43846160223313        0.77883664284592
N            2.75879090625743        2.22417235292506        1.64500223308883
H            2.23289004926829        2.89051210225709        2.18440337366630
H            3.75910112302924        2.31410287915519        1.58869049962041
C            2.85933818755073        0.61648619489668       -0.12153036416439
C            4.17873076973889        1.01256087583892       -0.38773247949484
N            5.25883891946552        1.35041545908433       -0.59478596694378
C            2.39814330052188       -0.59236030267643       -0.64977182820087
N            3.20491514556710       -1.27883156108645       -1.48191618277332
H            4.13031132580617       -0.93274181285974       -1.67610964670357
H            2.96204433509346       -2.21117713600734       -1.77432943010427
C            1.15431032226464       -1.22107377518714       -0.27632185766486
C            1.09227618790925       -2.59726318885225       -0.59762750384046
N            1.09052667805794       -3.68783324457852       -0.95861328503172
C           -0.01170340972437       -0.64539704339850        0.21805805349786
H           -3.03891044303208       -2.05726985938462        1.06581858939713
