26
 energy: -47.164117033606 gnorm: 0.000894593617 xtb: 6.6.1 (8d0f1dd)
N            3.26958299280345        3.28956520754732       -0.03618654970269
C            2.56070610496413        2.38398988130316       -0.02365583939710
C            1.70742852149580        1.26024811019136       -0.01074315662087
C            0.37283732138006        1.53994663842144       -0.01273891936596
C           -0.81746427085545        0.75104662096618       -0.00477465518892
C           -1.96453251522966        1.50971023792591       -0.01170397868346
N           -3.28438393588488        1.22780982434798       -0.00924246794559
C           -3.81934896384486        0.05122592328489        0.00160644451899
N           -3.26643706088554       -1.22306576103616        0.01324764160296
C           -2.02108745502464       -1.50111258123898        0.01577764314823
C           -0.79230348654501       -0.73066403624939        0.00910844210769
C            0.31991357176346       -1.51500871794533        0.01654996646169
C            1.73019739202463       -1.24633971278446        0.01356943012936
C            2.53905267130469       -2.39924540619920        0.02269077548826
N            3.21380284912086       -3.33129297912057        0.02603496268696
C            2.38569183039243       -0.03314783532174        0.00238300939253
N            3.73284192979167        0.00718221512822        0.00334880196881
H            4.22095800367760        0.88706202328144       -0.00762809430873
H            4.25774250471430       -0.85198964958356        0.01010036734181
H            0.13366776599174       -2.58431091616538        0.02652131453197
H           -1.85329612176363       -2.57844855754018        0.02477939590187
N           -5.15977608390401       -0.01670510622702        0.00210828349940
H           -5.70038164445565        0.82993522087080       -0.00588876215108
H           -5.59759145576230       -0.92091363549503        0.01042042974697
H           -1.82860427457162        2.58773932523948       -0.02152366374944
H            0.16850674300269        2.60690564309936       -0.02299129001325
