20
 energy: -36.046633199840 gnorm: 0.000821530417 xtb: 6.6.1 (8d0f1dd)
N           -4.79254207137251       -0.41091695539989       -0.29810679582389
C           -3.66275363300608       -0.24775856522263       -0.17665640663702
C           -2.27308197223980       -0.05631221289203       -0.04001586179318
C           -1.70953820278265        1.10676101263743       -0.56666892414247
C           -0.41665743628525        1.58993741376966       -0.39390713936347
C            0.70897242935330        0.88546749488007        0.02164884833357
C            0.66338597336670       -0.58437195482874        0.06193131334374
N            1.56201738377274       -1.30463117418198       -0.54610552702044
C            2.81927203833643       -1.01939144074674       -0.77626722861978
N            3.59337387134448       -0.20327333495824       -0.10520030774704
C            3.14498985260389        0.86347912758197        0.55038252490543
C            1.90887321854923        1.47749613535548        0.47381319343832
H            1.83031252922751        2.48779108103029        0.85671747762183
H            3.92855715506812        1.38317646693491        1.09252931350125
H            3.30978782061969       -1.63595276423422       -1.52228186489185
N           -0.29390327531969       -1.16468733063096        0.76676280462774
C           -1.56021535679283       -0.94899445218248        0.80159314513551
H           -2.11715839353441       -1.52807419190480        1.53107059673435
H           -0.25137877808802        2.62484629654150       -0.66694828790688
H           -2.40637828382110        1.77839168125152       -1.05493699999592
