28
 energy: -50.643571328682 gnorm: 0.000541472061 xtb: 6.6.1 (8d0f1dd)
N           -3.27065531106664       -2.69227763424011       -0.17056460915671
C           -2.55782417200037       -1.78949859926906       -0.09929149678547
C           -1.75509001144472       -0.63992134803952       -0.03141178450746
C           -0.39880900953545       -0.81312274121208        0.32477773869193
C            0.00875521860781       -2.06594031644583        0.81037495595002
C            1.26941618817050       -2.62556860534743        0.85582447214906
C            2.45866992052792       -2.17691717543656        0.30926980758737
C            2.71677883235451       -0.94687257351487       -0.30133286845926
N            3.92297379179482       -0.78791260218311       -0.90363859020540
H            4.62640862521483       -1.49761517320237       -0.80203005052461
H            4.20343117972758        0.12231891429220       -1.22804862618591
C            1.85640815810997        0.17874862412410       -0.27240878398686
C            2.42433715114854        1.40073132126954       -0.68999604587350
N            2.92796256500333        2.36885989080840       -1.05362178092554
C            0.52342972412122        0.30288161772188        0.17109679339206
N            0.16603955880871        1.53763332477026        0.48317024076759
C           -1.00691906851438        2.11986651737708        0.53551425532336
N           -2.11536726248347        1.80374128901748       -0.14421716459983
C           -2.41514692441762        0.56192419929351       -0.46422832849125
N           -3.53190343105605        0.42378708786451       -1.20708909433960
H           -4.06534541581442        1.25178775601521       -1.40682500230344
H           -3.93723703687633       -0.48373635619394       -1.36093943476418
N           -1.07787130692529        3.25360261419025        1.26272365629354
H           -1.88196819727978        3.84292341000704        1.13927184260355
H           -0.22073197516288        3.64930969686357        1.60689991929912
H            3.29336942468007       -2.86592893769547        0.33666633597832
H            1.31622542293826       -3.60834558766237        1.30928934005763
H           -0.79664275833225       -2.70354253427579        1.15512646821463
