28
 energy: -46.608974882014 gnorm: 0.000259822680 xtb: 6.6.1 (8d0f1dd)
N           -4.36326521343780       -0.66662375560306        2.20041350276434
C           -3.51880392564041       -0.26987240654777        1.53044381671113
C           -2.48245672270731        0.19969662583243        0.69676794183106
C           -1.60856736462746       -0.81310297816728        0.16148368851533
C           -0.36061723180346       -0.63509680711887       -0.31016886269623
C            0.36408777657828       -1.76384520188128       -0.92849140000612
N           -0.30646362890909       -2.39753758013552       -1.92981245412428
H            0.08957644301618       -3.22378967280616       -2.34371814171808
H           -1.29545811631357       -2.25056238216328       -2.03003822625744
C            1.60458129884829       -2.17187346405172       -0.54055427258922
C            2.47491630374344       -1.52577343672591        0.36781843505521
C            2.48225207223593       -0.19945618019704        0.69771838114114
C            3.51820416445204        0.27074912971423        1.53152658490117
N            4.36287662591638        0.66791021170968        2.20097055211318
C            1.60853089934620        0.81292681214317        0.16138039468780
C            0.36073849513225        0.63455189152582       -0.31054524590730
C           -0.36376404032337        1.76282443015948       -0.92996973441901
N            0.30711190913482        2.39574298501120       -1.93156775848749
H            1.29615399393985        2.24874433953721       -2.03129622095724
H           -0.08878120183333        3.22170720837033       -2.34618990564754
C           -1.60438042088664        2.17115199503063       -0.54274968811687
C           -2.47500511282153        1.52575799311397        0.36584893737925
H           -3.27665237615686        2.13470513300485        0.76581124640419
H           -1.95958864768944        3.11047553981030       -0.94875248554344
H            2.00830113440770        1.82071194933554        0.18631025004183
H            3.27643274759743       -2.13441054768896        0.76851436927870
H            1.95992070983505       -3.11150948216932       -0.94571748777556
H           -2.00835756903299       -1.82086533234408        0.18703651862131
