32
 energy: -53.485246382176 gnorm: 0.000505970631 xtb: 6.6.1 (8d0f1dd)
N           -4.22302416481486       -1.07923569942668        2.28836308407148
C           -3.49219097996248       -0.69240219261345        1.48730301576019
C           -2.60926039146325       -0.20079514256251        0.51165163756991
C           -1.53944173820946       -1.09772632429895        0.12018465990789
C           -0.33505604671681       -0.76769640827487       -0.37588517802142
C            0.55783888546012       -1.83777752786666       -0.85308902165888
N           -0.05788397793337       -2.82831945061221       -1.56761633574899
H           -0.98395354984207       -2.65399144582030       -1.91769010141797
H            0.51314990272585       -3.47255258521503       -2.08862068763249
C            1.87974069091321       -1.92581103386372       -0.56654878341004
C            2.66306935860144       -1.02004558594997        0.21225959967479
N            3.82277028689881       -1.53605196490914        0.72204261291949
H            3.90191273167883       -2.53241467859394        0.82489847042078
H            4.35786397304572       -0.96601393011281        1.35642246889403
C            2.40152339181558        0.32947847929891        0.36282873401657
C            3.29852235354169        1.07821320158222        1.13759042922039
N            4.02444599475668        1.68789986182193        1.79434337738665
C            1.34891043255007        1.08540267093953       -0.29513843562383
N            1.66671553773423        2.41072926962942       -0.57414210032289
H            0.89333325317923        3.05579989443119       -0.59545801899474
H            2.47619746475740        2.76733195891759       -0.08878724553010
C            0.12089454058956        0.60304616807008       -0.62620332636287
C           -0.80973636192158        1.43549398446194       -1.37921612205463
C           -2.12090503133276        1.59089351436082       -1.15249855431380
C           -2.89922702661247        1.00517963317664       -0.07907888880938
N           -4.05022301271575        1.67213006288052        0.23631539386852
H           -4.57161958687741        1.36727151295705        1.04179201739876
H           -4.14478561703287        2.63445594469915       -0.03679991711376
H           -2.68018466381555        2.26401649248737       -1.79154206786206
H           -0.37297531775790        1.98500834643944       -2.20781259204416
H            2.40239371959664       -2.81486864889690       -0.89946199821483
H           -1.74951732393766       -2.14605753293791        0.29789292072587
