32
 energy: -53.483444837869 gnorm: 0.000503875068 xtb: 6.6.1 (8d0f1dd)
N           -4.13838687701753       -2.52374847706630       -0.61151374858299
C           -3.23925847758146       -1.85783658018924       -0.34428700612514
C           -2.11585646859981       -1.06806287387423       -0.03510303022947
C           -2.38101862345554        0.18420778964550        0.59809610559481
C           -1.57492224501246        1.27897254965386        0.64067483559090
C           -2.07090784272595        2.42135708094110        1.30085858190539
N           -2.44371200075074        3.36531183364306        1.84130838885299
C           -0.28425673495968        1.43689652228174       -0.02416080559736
N            0.01185521487100        2.73541925937769       -0.46565684433159
H            0.99738459201570        2.95934188968792       -0.45179389740999
H           -0.54417920046889        3.45108784022709       -0.01756317912024
C            0.56599351957371        0.41607195354002       -0.27351516925815
C            1.78681815516291        0.63216046912780       -1.08063149154968
N            1.55557153753320        1.09929878087126       -2.35002753971928
H            0.70746565920464        1.62016311646094       -2.50033262898270
H            2.35048833523103        1.36858807215150       -2.90585327098477
C            3.03284917507670        0.35073643436520       -0.63945406506019
C            3.38760619204894       -0.32854904871371        0.57704960059184
N            4.69926052450932       -0.15501108183787        0.98022648682295
H            4.92846523554416       -0.47542837081468        1.90667210904869
H            5.15282752761233        0.69950509817377        0.70332258500691
C            2.60999746592251       -1.25060511801161        1.21651885805115
C            1.31576115915492       -1.68214462942442        0.82366456118821
C            0.37972297504507       -0.97160218185946        0.14950200872951
C           -0.86681324704160       -1.61142678162996       -0.27618472605041
N           -0.74222623233567       -2.80662574600340       -0.88914343535458
H           -1.55840382195333       -3.31526494375757       -1.18827761210291
H            0.16460893322202       -3.23208280694513       -0.96720951014844
H            1.03561029051866       -2.67241339557399        1.16656807256200
H            3.05927193726781       -1.78790033822003        2.04216123387548
H            3.86931689285295        0.64570889686823       -1.26248844419975
H           -3.36708919396416        0.27747496480378        1.03943670628526
