32
 energy: -58.299128918312 gnorm: 0.000985177744 xtb: 6.6.1 (8d0f1dd)
N            4.71565239878717        2.07773702553837        0.99508487417364
C            3.77723888139515        1.52968576140949        0.62071403142641
C            2.60612666449463        0.88029319052024        0.18211908718729
C            2.79639918562647       -0.35301544368238       -0.50781676939915
C            1.89503063137033       -1.35359958741751       -0.69911038042219
C            2.33850947716407       -2.49695721180687       -1.39578843427965
N            2.67193596714216       -3.43725215758954       -1.96638440474983
C            0.54127592724303       -1.42591783192767       -0.15350673985276
N            0.09614170810132       -2.70807572466212        0.15140983870837
H           -0.90295801676858       -2.84573775488151        0.12722136475098
H            0.60888379736199       -3.45051330853239       -0.30212801415714
C           -0.22265954093658       -0.33674035094895        0.10252135782433
C           -1.52482978339443       -0.46780636148382        0.78200876511178
N           -1.51654119905723       -1.08579482323327        1.98353794714699
H           -2.37475129008419       -1.21331522576348        2.49449805698679
H           -0.68506724671572       -1.55444506203532        2.29638095109035
C           -2.68538313698470        0.01594455706052        0.23064268711170
C           -3.91091089962802       -0.23845172319509        0.86112894924172
N           -4.92587005617361       -0.45480430205821        1.36038020155299
C           -2.73288780807401        0.76251962560640       -1.03228865775806
N           -1.87499910332374        1.63637117836700       -1.43410593627788
C           -0.69519171953382        1.91063754214554       -0.83169660184632
C            0.13703960688017        1.06004596838655       -0.18495150566092
C            1.40482681792898        1.54513514702726        0.35883630402679
N            1.36401371254486        2.71387098424544        1.03019210210237
H            0.51870888194687        3.25682054759910        1.03933109573647
H            2.21647310242520        3.12877874516183        1.37156003175574
H           -0.36528485751030        2.92594659784314       -1.02730844770076
N           -3.82564483020625        0.55023896007968       -1.80842823633650
H           -4.63651931154396        0.10562154832593       -1.41243865014346
H           -3.95637084812509        1.17053307316679       -2.58955018541225
H            3.80385082794205       -0.52388018637927       -0.87057244453660
