28
 energy: -51.422080486533 gnorm: 0.000869531930 xtb: 6.6.1 (8d0f1dd)
N            5.25340154316387       -0.20215480882824       -0.13347703116098
C            4.10536323759667       -0.16566991550220       -0.19305943369695
C            2.70404750259239       -0.09700970659525       -0.23795543270748
C            2.01017123042060       -1.01078738473460       -1.05189450447108
N            0.77087181927399       -1.33690257466380       -0.94463789024776
C           -0.25899545828676       -0.86664915325012       -0.26015816715181
C           -1.17027543372700       -1.79686930145153        0.25921287216312
C           -0.69610657053840       -3.12180201071252        0.38386267502703
N           -0.33002983009003       -4.20142849464923        0.51620084277634
C           -2.50484519173686       -1.58225669790527        0.64932972684353
C           -3.30103211352461       -0.49797253447692        0.42275130238447
C           -2.95499235966270        0.74960501283900       -0.15687073204151
C           -1.65134553082760        1.24102476641567       -0.33385757078646
C           -1.54845129343797        2.58984130926244       -0.72193666615965
N           -1.48922138876498        3.69400345076850       -1.04285865371034
C           -0.40498066392575        0.57551875862200       -0.11553838641565
C            0.69656869960608        1.33583091550597        0.24340439644813
C            2.05966434613640        0.99909156749894        0.38652720084366
N            2.83322128490086        1.87519584597611        1.06394102350945
H            3.82995039834151        1.73950623491513        1.10030211039876
H            2.45164589450922        2.74717660735961        1.38606045199806
H            0.47007540530492        2.35719650332444        0.53007178604617
N           -3.98638791482720        1.56481297777815       -0.47386939669975
H           -4.93168551100745        1.28289247708993       -0.28681025322476
H           -3.81559933898615        2.48915579177668       -0.83248421916570
H           -4.34521857293739       -0.59684025460086        0.69058782423643
H           -2.98295417107169       -2.44283231184367        1.10211883274838
H            2.56770264320344       -1.55748344911961       -1.80502749717961
