26
 energy: -46.385186228506 gnorm: 0.000992987457 xtb: 6.6.1 (8d0f1dd)
N           -4.22229575047474       -0.73876392731143        1.06296629417022
C           -3.18333214541859       -0.44683447515749        0.66004233311262
C           -1.92500822863656       -0.07772041908366        0.16377851491476
C           -0.84552821499901       -0.88635825208657        0.43189556301809
N           -0.97219958110058       -1.96833565223210        1.23202849726207
H           -0.20589373079417       -2.61180104953928        1.32348724124258
H           -1.87642221358263       -2.22692339985974        1.59179373094880
C            0.48789709354766       -0.63475585776567       -0.12819333813423
C            1.22353166418946       -1.65664948954827       -0.64219898101243
N            2.41998450473244       -1.59084676120459       -1.27742783881450
C            3.28880580423966       -0.66693352603086       -1.06573584467049
N            3.36499634620105        0.19492760367222       -0.03642951258794
C            2.36005359682249        0.72765281388208        0.56173205055097
N            2.52556225400309        1.29554605997304        1.77210152410271
H            3.44631744490770        1.30856929932185        2.17778903396785
H            1.81896257317490        1.90985469174745        2.13712374607413
C            0.97887828588483        0.73531490612167        0.00926985708499
C            0.28367235917734        1.86654588280356       -0.20761662568233
N           -0.94645848340142        1.99502356463157       -0.76930118540944
C           -1.89364900327426        1.12739219645744       -0.67846216306080
N           -3.02536224510064        1.37024059135555       -1.38894009701639
H           -3.87557343741206        0.88574070204019       -1.15742435472077
H           -3.08950389604078        2.26072433707744       -1.85152806434064
H            0.76476296826660        2.82457201528973       -0.03891676252623
H            4.16765024306546       -0.67625593191899       -1.70155105765421
H            0.77863371429442       -2.64567968978284       -0.70212922061502
