30
 energy: -49.238036940434 gnorm: 0.000805833132 xtb: 6.6.1 (8d0f1dd)
N            3.97631118199104        1.80639185170055        1.65500207192498
C            3.16301396943203        1.21999348928175        1.08837242758287
C            2.19662157404259        0.48926461783226        0.38184962734237
C            0.98741481310009        1.18275989451927        0.01067786153844
C           -0.20119161292867        0.62227883130068       -0.30343396147603
C           -1.29994646670447        1.48549936349594       -0.77191441339496
C           -2.58134273825049        1.37783308834315       -0.35829055194407
C           -3.13992334836168        0.40367010208098        0.54066224362016
C           -2.67654756408889       -0.86097239104059        0.72728143044272
C           -1.56158267783551       -1.47214141454222        0.06630246138372
N           -1.64146218073488       -2.85167631054661       -0.09125468439072
H           -2.30385187750056       -3.31626973321624        0.50961262904280
H           -0.76576280413831       -3.34088766900940       -0.18484949124246
C           -0.45107960794108       -0.81663742794339       -0.37104157259413
C            0.58399805560591       -1.49353169308649       -1.15386551940358
N            1.83814866967408       -1.49988982959735       -0.95056665086920
C            2.50286290868301       -0.80700522231650        0.01797016235511
N            3.60338853530427       -1.45641667405453        0.51026611489372
H            4.30729849947959       -0.89676653457955        0.96463901344825
H            3.92456898300377       -2.24986341667325       -0.01862668018792
H            0.25934543898884       -2.04713179292819       -2.03510723249529
H           -3.26666633862113       -1.51653501485185        1.35754212908717
N           -4.34115471415854        0.77886643043113        1.11763702605960
H           -4.48737460487196        1.76686423049815        1.24589454799237
H           -4.66361085348687        0.20804168232610        1.88229410096898
H           -3.28018398949481        2.13154561290577       -0.70182533959349
N           -0.92281705021424        2.51197709057155       -1.60874326388857
H           -1.64911848567670        2.96915376604964       -2.13596785913223
H           -0.03725031525879        2.41756009791412       -2.07746230115422
H            1.04755375356309        2.26318506073451        0.05023147808148
