28
 energy: -45.819804092384 gnorm: 0.000328402022 xtb: 6.6.1 (8d0f1dd)
N           -1.96183520675347       -2.65153414302032       -1.57466495226282
C           -1.75373438396523       -1.64748961488557       -1.04564934288789
C           -1.53508512629901       -0.41909319016148       -0.40491890532001
C           -0.16590881156038       -0.18153645195696       -0.00768073605845
C            0.37821424489075        1.17039129576060        0.04520193104815
N            1.59416632449812        1.42987670081293       -0.44387790218177
C            2.69028766268933        0.73019148261806       -0.48396699442943
C            2.96586024811868       -0.46606863668507        0.22749720706361
C            1.99810480042279       -1.38117573506425        0.57572152597076
C            0.60577108462948       -1.27672565494536        0.29135011519481
H            0.07410611401196       -2.21923428974845        0.36201772055762
N            2.38380334718937       -2.53505342865684        1.20042235288125
H            1.73781485143472       -3.30501681220275        1.22422673347059
H            3.36202306699336       -2.76658895719892        1.21985818492118
H            4.00361032873606       -0.73372279846778        0.37588816146923
N            3.68733201993493        1.24673773956261       -1.25609068201586
H            3.54785264973693        2.16765549773723       -1.63369885095310
H            4.62862015147694        0.91991437330777       -1.13464953193664
C           -0.30879078110333        2.26236843860689        0.55448479825792
C           -1.65731893617599        2.39086766872294        0.88082676011439
C           -2.70900916366506        1.57604275102816        0.55742562940815
C           -2.67053591623502        0.35929614124431       -0.16352373645396
N           -3.86869027736322       -0.09985269313240       -0.62327116754096
H           -4.71667209325921        0.34503417222822       -0.32229971874876
H           -3.92690034944287       -1.01933168278146       -1.02671291508230
H           -3.70154428112978        1.92272574022437        0.81770620651059
H           -1.91927042558347        3.31047636246263        1.39141989812321
H            0.30891173768812        3.13698576438066        0.71186771366621
