25
 energy: -42.663073314516 gnorm: 0.000523598752 xtb: 6.6.1 (8d0f1dd)
N           -5.35440878519674       -0.05784160669499        0.33917357117232
C           -4.20870369635467       -0.03051002365198        0.24957105424911
C           -2.80766411208896        0.00568656647422        0.13429835565938
C           -2.05428856812945       -0.77231267366822        1.00300423568812
N           -0.79841735940051       -1.11615095863658        0.84961679869354
C            0.16141210159995       -0.61177260235156        0.13304367468816
N            1.12087022180192       -1.42519624632114       -0.28244455078716
C            2.40637610204279       -1.20726421617480       -0.35316918333536
C            3.11069589938228       -0.12021330868220        0.23279082647456
C            2.59512102939529        1.14253053243806        0.42533097326542
N            3.39789841974388        2.10501256312620        0.95593882822023
H            4.36820658362150        1.91162703417678        1.12570482873559
H            3.10029016740449        3.06342957069527        0.95415451427587
C            1.30064393069122        1.57915257938408       -0.00421593985560
C            0.19445625509905        0.81778633647790       -0.23349404313070
C           -0.96240399914996        1.32756774873828       -0.90875451664978
C           -2.25374122540230        0.91330577583729       -0.81228945805630
H           -2.97778425701235        1.41551563348518       -1.44375110389964
H           -0.75469094705857        2.12513671150356       -1.61300226188770
H            1.19932209002374        2.65004352000095       -0.14087056138235
H            4.16319486851815       -0.26943902679461        0.43583771513446
N            3.13029658604472       -2.16108235031831       -0.99056051825822
H            4.12735797178186       -2.19616303931992       -0.87928847319498
H            2.64759974450847       -2.99770782043203       -1.26996918764185
H           -2.54997358896625       -1.25199172499127        1.84078229102244
