29
 energy: -51.135540143956 gnorm: 0.000994318895 xtb: 6.6.1 (8d0f1dd)
N            2.54646618585239        2.80733220180697       -0.70034286452709
C            1.56679574887590        2.23578273138407       -0.52237532282536
C            0.33109478557035        1.55438145480975       -0.41273679822019
C           -0.80160194294435        2.36446430250994       -0.73816009787720
C           -2.09903630416382        2.13163706358398       -0.45188900803575
C           -2.64681012799859        0.98971392947345        0.22584329568010
C           -2.04453285717879       -0.25306763700765        0.30117612338315
C           -2.75424132877541       -1.27179633530006        0.96134257636883
N           -3.35126174761653       -2.08819962281404        1.51072314607935
C           -0.76566125791862       -0.68483089846301       -0.25038543180385
C           -0.68681863913207       -1.94129131056493       -0.77765839811260
C            0.45438179083697       -2.64138697335063       -1.24213346652975
C            1.74861802857167       -2.46446801076716       -0.88400179539274
C            2.24605526774747       -1.51988337017010        0.07024527196151
C            1.60823477737180       -0.33496670037836        0.40978435992175
C            2.22675006381126        0.47238827439778        1.38405317574285
N            2.72060375248130        1.06780341009147        2.23550024061589
C            0.37452444904344        0.20577960432058       -0.12544231384977
N            3.44567100598948       -1.80425691579712        0.62672372400888
H            3.87217857069710       -1.15534395926404        1.26662229310606
H            3.95376074260066       -2.62448531097434        0.34954803973557
H            2.48342059931848       -3.16010406929421       -1.26812545044327
H            0.24113017344388       -3.47121146470714       -1.90419054465111
H           -1.62555466274161       -2.46499129206959       -0.90969623468652
N           -3.88685607821860        1.15900747409079        0.74858324033647
H           -4.31171787090459        2.06801733615934        0.75797551230036
H           -4.31744527440709        0.41532033698451        1.27151257435031
H           -2.81541781489477        2.90777559737424       -0.68785463745789
H           -0.55462635682260        3.31461284793432       -1.19591986387938
