30
 energy: -54.055407457758 gnorm: 0.000578336124 xtb: 6.6.1 (8d0f1dd)
N           -2.55902016007053       -3.36904577341212        1.13622970137559
C           -2.06060447267024       -2.40762109837225        0.74227497772186
C           -1.44743391412208       -1.24513906312864        0.25145058426815
C           -0.18386866675306       -1.44122185844744       -0.44608548669396
N           -0.03656965756332       -2.66685041617544       -1.07304377586318
H            0.90552276470583       -2.97534227801293       -1.24804403760810
H           -0.66407117323387       -3.39541831649643       -0.76960297610663
C            0.81581364519843       -0.52783310097187       -0.47696407964591
C            2.05001642073657       -0.72589058856885       -1.24088307591934
N            3.23200435047533       -0.58497116877585       -0.80005872405368
C            3.52992687380860       -0.14279860872164        0.46949979312843
N            3.00279063493343        0.86834842697367        1.07918484717863
C            1.82828289495900        1.42885236573159        0.69185992357317
C            0.78231007317258        0.84227371440888        0.05407589467274
C           -0.38732565577405        1.64859950486447       -0.29955522165629
N           -0.13440980023343        2.87856444670389       -0.79608133204654
H           -0.89214904834738        3.50386771752254       -1.01766940695710
H            0.81037518963586        3.21546079027578       -0.84372058422995
C           -1.68763302780844        1.22048980891318       -0.13821715112003
C           -2.71039347242864        2.13825627656394       -0.43408039512464
N           -3.54118398867108        2.89621255641215       -0.68105719065661
C           -2.12619647021295       -0.05506045362365        0.39906141065454
N           -3.31870012345811       -0.03364627090583        1.05253500538489
H           -3.89605300116759        0.78826850269370        1.00453353925228
H           -3.75174693927791       -0.90570414852652        1.30692067604456
H            1.71887949639112        2.44434591359327        1.05891564362281
N            4.59619499534536       -0.76244408591466        1.03568461412023
H            5.18446392142226       -1.32079379973561        0.44214532515840
H            5.00800985969785       -0.31660923663619        1.83718490445868
H            1.96709505010998       -0.99241672522957       -2.29477402643296
