22
 energy: -40.285851645275 gnorm: 0.000418155298 xtb: 6.6.1 (8d0f1dd)
N           -4.99022170363974       -0.19505219638164        0.43332100951634
C           -3.85213150486563       -0.09375241392728        0.33280129125442
C           -2.45228859436970        0.05049487306876        0.21452535212279
C           -1.98226090880170        1.01437872744603       -0.73446477630866
C           -0.74975231678180        1.57474976104341       -0.79456916108606
C            0.39639265727926        1.22141724376992        0.00317549113740
N            1.25165740571143        2.08882886428776        0.39598172594869
C            2.50786649838951        1.93878221253172        0.80406679690221
C            3.37590681679957        0.97613685511943        0.35282634467587
C            2.99444195385539       -0.21421611798632       -0.29611831271785
C            1.74575249649277       -0.79009422204435       -0.32273168882515
C            1.58779875976462       -2.02795620001043       -0.98485443608931
N            1.46344912533163       -3.03059062660060       -1.52777834736567
C            0.52963978280359       -0.23251408878644        0.23480473943785
N           -0.35976084032712       -0.96286881780135        0.79342725087608
C           -1.64529875801097       -0.72799473596831        1.01765753303293
H           -2.08367189248393       -1.33930452003121        1.79669937777518
H            3.79047176695504       -0.79739289959609       -0.74366327372900
H            4.43461516022073        1.13924801041914        0.49295924750661
H            2.87298771153430        2.76165833303276        1.40564307390878
H           -0.57059022128893        2.35591895335692       -1.52161827511009
H           -2.73796884296705        1.40542931636018       -1.40459513806352
