20
 energy: -40.073115583244 gnorm: 0.000445221773 xtb: 6.6.1 (8d0f1dd)
N           -4.53557957380361       -0.39123997863342        0.55297221578630
C           -3.39175514295574       -0.37014763912259        0.44774664573628
C           -1.99408902178875       -0.30131395853229        0.29449582214495
C           -1.46374058734691        0.89326279009054       -0.31678190263745
N           -0.24184382450970        1.35743398617721       -0.12275174153705
C            0.78508537345371        0.65569586522969        0.27837842662363
N            1.78615617083346        1.08800951761153        0.99004634691810
C            3.03201479665105        0.68106007945783        0.97344081122857
N            3.68481975711671        0.14671438215955       -0.03998617322116
C            3.02779894666994       -0.47297399126680       -1.00631563174365
N            1.85772671398897       -1.04973528095756       -0.93043417247590
C            0.87952815616339       -0.79934813044328       -0.09932145921927
N            0.02150549582569       -1.65351730543026        0.37966618040722
C           -1.22093420069821       -1.37462028839048        0.72215569890382
H           -1.70832493208359       -2.15725933507842        1.29279051003550
H            3.57641741315324       -0.64832669017186       -1.92477337953501
H            3.62433098659518        0.95764865589665        1.83806323327208
N           -2.29182471834735        1.67857429647665       -1.01976133249602
H           -1.95149154531869        2.56706290092867       -1.34676201729200
H           -3.27413410020187        1.46653992020136       -1.07490532309848
