27
 energy: -50.927004731877 gnorm: 0.000803084237 xtb: 6.6.1 (8d0f1dd)
N            0.14895274366211        3.40043287803767        0.84035179799447
C           -0.20444814021852        2.33986374550301        0.56801641678454
C           -0.71360656403988        1.05121358431049        0.33124865569907
C           -2.14454083431857        0.90971607524516        0.45486457090502
N           -2.88935179392291       -0.02193626273169       -0.09420863499445
C           -2.41624822353651       -1.13512455113500       -0.67019025009274
N           -1.35721354550158       -1.82793986785674       -0.31967790031935
C           -0.28353857626468       -1.38636634549938        0.30450748115527
N            0.36290590848179       -2.18655523164076        1.10511542460262
C            1.63475063148220       -2.23738348833146        1.41751837745500
C            2.69366144254165       -1.70457123174632        0.71290540597442
C            2.61814418795093       -0.64284641755068       -0.20680749716214
N            3.74685002149974       -0.32505168245854       -0.88744080006011
H            4.60584634805472       -0.79715043768376       -0.66758613847469
H            3.79375128444770        0.53504956745843       -1.40847307148084
C            1.49556975911462        0.20998579526065       -0.36584477306804
C            1.70866690756270        1.37654985823893       -1.12709519221973
N            1.92093873648563        2.28195484371969       -1.80421112378078
C            0.17608052338105        0.00306672203097        0.09438854666083
H            3.68301452795825       -2.08859183776915        0.92213275206466
H            1.84986778049071       -2.87674549977144        2.26713051723389
N           -3.21065204341715       -1.67208094295168       -1.61733939662377
H           -4.12912997073058       -1.28613610558890       -1.74383159609785
H           -3.01001652327872       -2.60256961810531       -1.93796151776670
N           -2.81313421862237        1.88631946764081        1.09651392130690
H           -3.81776546080604        1.86578736145714        1.07168513594675
H           -2.33596293015556        2.72099755251830        1.39289783045850
