29
 energy: -50.317244834139 gnorm: 0.000752194653 xtb: 6.6.1 (8d0f1dd)
N           -4.68038337368119       -1.05523879692955        1.66709501199392
C           -3.72554240151989       -0.73402739249637        1.11621588172292
C           -2.55512007074161       -0.34286371465886        0.42509966947938
C           -1.48534393455549       -1.16558514862909        0.51468399014409
C           -0.18941186681025       -0.98357721794409       -0.09636872366107
C            0.48417386420027       -2.07651031640114       -0.54355179475481
N            1.62400465326509       -2.11616094615217       -1.27623045323291
C            2.62069856637142       -1.33069696796167       -1.14698300290822
C            2.80576094927903       -0.31418901743965       -0.13287023036708
C            4.11724601379872       -0.04469615392546        0.28849603788597
N            5.18436610076705        0.21172425056601        0.63417927621760
C            1.77037776043023        0.41215389007248        0.41236730886499
N            1.97026982236866        1.23773842732027        1.46176256012991
H            1.24786651138799        1.87936700303565        1.73729933624807
H            2.88606320234424        1.31760377318011        1.87332833725120
C            0.39090669585918        0.36287293208376       -0.11883888249839
C           -0.24895823218295        1.51137556703792       -0.46533389218294
N            0.44460005459501        2.72356215555027       -0.46648500751299
H           -0.00258578626388        3.45800268550851       -0.99376041703163
H            1.43428740489055        2.65913884441603       -0.65559646775795
C           -1.64029962931692        1.62371001330277       -0.82023927958613
C           -2.67804587917956        0.85577653603050       -0.40850842113592
N           -3.96665090939390        1.22164136143023       -0.70380479504582
H           -4.70570257608433        0.55173743542535       -0.57689078652732
H           -4.11061664626324        1.93122489057773       -1.40040952537867
H           -1.89700494433333        2.50728319426973       -1.39398826454662
H            3.45862342054730       -1.51540366740572       -1.81215967283566
H            0.01321316856297       -3.04940237652152       -0.45531048260705
H           -1.61311142224652       -2.07952918884832        1.08630800684466
