32
 energy: -59.107496546911 gnorm: 0.000834775307 xtb: 6.6.1 (8d0f1dd)
N           -5.66912731024842       -0.52515180198582       -0.43670809963938
C           -4.52692837869455       -0.44951541097604       -0.32749592103585
C           -3.13013235150255       -0.33502967922447       -0.19100456912215
C           -2.38590569609415       -1.46283996181934       -0.50218194681539
C           -1.02902007653994       -1.70417043916491       -0.35726565650536
C           -0.67772974520858       -3.03971560935305       -0.66223552077858
N           -0.42799173071823       -4.13140179193094       -0.91964100899449
C            0.05800605888575       -0.83415181420604       -0.01409594156959
C            1.23412987248496       -1.48012801310450        0.34735617659978
C            2.56780591527129       -1.06759404235211        0.46758860626573
N            3.42685847571047       -1.96133722892586        1.00603581876605
H            3.11050388857851       -2.88457860685650        1.24498559284902
H            4.41547824138617       -1.77409943418196        1.01416223884481
C            3.11197999307482        0.14781701998146       -0.00421864397220
C            4.51132552633294        0.26634248279336        0.00903460052824
N            5.65879496484434        0.36413699689625        0.01997182698154
C            2.37964622900584        1.25346980018353       -0.49451843992369
N            3.09089787158921        2.27605054295371       -1.01954533759927
H            4.09673219201219        2.25290051448943       -1.00933091424075
H            2.63189250778870        3.13202780819824       -1.27605824356637
C            0.99398913996402        1.43777280430118       -0.41272695909490
C           -0.06875686441947        0.60758464235143       -0.06615040692711
C           -1.27821877188228        1.30255576231033        0.26650559627544
C           -1.07740583726874        2.63986777746712        0.66860027750248
N           -0.95651890720982        3.73138408185981        1.01539143480440
C           -2.62971193598931        0.91146180900278        0.28018077030242
N           -3.54826644446007        1.80117956727173        0.71400335524105
H           -3.27250810681480        2.72497982341673        1.00184294747788
H           -4.52728136886171        1.57426416081499        0.66001891256189
H            0.70245071656322        2.45414814104727       -0.65458764341149
H            1.10798210039755       -2.53528473591751        0.56550521524439
H           -2.96561495566845       -2.31102838052953       -0.85221598644370
