31
 energy: -54.580021169684 gnorm: 0.000880845006 xtb: 6.6.1 (8d0f1dd)
N           -5.30493985088081       -1.12926441351995       -0.10528501888058
C           -4.16018807027775       -1.01344334517926       -0.13243260968175
C           -2.76215945173092       -0.86603759155106       -0.16170943416621
C           -2.22783444894736        0.29068889901361        0.41562293687790
N           -3.07206583078910        1.13417082355102        1.05318397579770
H           -4.06157299480530        0.95150682962782        1.02906048103561
H           -2.75055778434138        2.03486309900200        1.36592377040607
C           -0.85607682386260        0.68836150722401        0.32328986308872
C           -0.59874764225077        1.98203065730957        0.83278923265283
N           -0.43552730907324        2.99173221016898        1.36047354543165
C            0.28505248143728        0.00072471050086       -0.10829359257208
C            0.38662613422276       -1.43491003154293       -0.24747465369254
C            1.52209783684884       -2.15204174388444        0.03837348630335
C            2.80084916415537       -1.73766436230973        0.49306031126739
C            3.35471977542903       -0.48123327636229        0.34503749739022
C            2.76975327307873        0.63976317573497       -0.26652435213770
C            1.39298364102362        0.83374367228020       -0.47768389567993
C            1.03545887757201        2.03207912068474       -1.12558277121224
N            0.79970929513863        2.97335293303696       -1.74536256631815
N            3.60398892449076        1.64681133003397       -0.61937974229511
H            4.58228985892639        1.59211611506317       -0.40367702971482
H            3.23035280513811        2.51299873684681       -0.96810838533066
H            4.39284535851777       -0.37175458328521        0.63417547045112
N            3.59052423816168       -2.72438856557764        1.00149729394243
H            4.47408570188377       -2.48909908492026        1.41569070021450
H            3.18815701970190       -3.61523498297825        1.23043525598020
H            1.41229750644063       -3.22879461653424       -0.02661844644455
C           -0.71980317417905       -2.18407490967976       -0.78023903932730
C           -2.04795963436684       -1.92103185633645       -0.78043209152156
H           -2.68301086841326       -2.65850784556418       -1.25793491490508
H           -0.42210315314912       -3.11176133585328       -1.25369856065911
