27
 energy: -45.316598583509 gnorm: 0.000705218494 xtb: 6.6.1 (8d0f1dd)
N            3.19221024731330        1.98915334308214        1.15986993929696
C            2.39631745554303        1.04875291103135        0.54861874973889
C            1.08842243874343        1.47632123730274        0.22138308581550
C            0.01452963770246        0.73776157009488       -0.22134427657647
N           -1.05777418740432        1.40626066547932       -0.67346268246803
C           -2.30983434595997        1.04920385224478       -0.62322263695740
N           -2.91992999354682        0.16076567148876        0.18183821094668
C           -2.32297834495759       -0.93055383321872        0.61789874489849
C           -1.05173897599355       -1.43968628104245        0.26377036269234
C            0.03657325083870       -0.73204000457911       -0.20910841035577
N            1.08408959975541       -1.42927382763199       -0.65482950676767
C            2.35777643122360       -1.15022253770623       -0.59554015498581
C            2.98782137599453       -0.13897458909290        0.16439292729645
H            4.04293772651568       -0.26760685319303        0.36925565413817
N            3.16799905943735       -2.06560446429453       -1.21719579615401
H            2.70501699428670       -2.69435258078557       -1.85186263361826
H            4.11009882322112       -1.79825880891979       -1.44180128861996
H           -0.88297435340871       -2.49445194713113        0.44041870628907
N           -3.08235223008572       -1.68869161061837        1.45702333192731
H           -2.82005035871648       -2.64199828959270        1.63225262085508
H           -4.04900115345271       -1.43155494391114        1.55618819602280
N           -3.16817231966020        1.75132018776222       -1.41483165353964
H           -2.81541840601266        2.59103568547635       -1.83975229774780
H           -4.14342315064905        1.70609465028614       -1.17672055078298
H            0.88965125278180        2.53163604147895        0.36236116398508
H            2.73363482194923        2.75711920635800        1.61934616884413
H            4.05312976383971        1.67483305273150        1.57371300252781
