22
 energy: -38.712806083956 gnorm: 0.000939647203 xtb: 6.6.1 (8d0f1dd)
N            2.60519154490837        2.00141944468534       -0.92603011286739
C            1.83228180439159        1.06430855647281       -0.33613734017018
N            2.43373101305486       -0.09906703127977       -0.14586408449809
C            1.82999762830558       -1.17484075510588        0.36251862888554
N            0.57754722392990       -1.55816663448696        0.19582399332912
C           -0.46822635561704       -0.78112437067649       -0.00465122776635
C           -1.56815870990060       -1.26523517574274       -0.72521039287050
C           -2.81053060161538       -0.65800341144828       -0.86671958081431
N           -3.41361560883153        0.21264408209840       -0.08547907445037
C           -2.80350014951265        0.77632739869253        0.95180092561203
N           -1.55789335023226        1.07950867469094        1.10382817889960
C           -0.49824624840803        0.62883809388479        0.42507166826156
C            0.55718904894212        1.46540195762524        0.13470037877325
H            0.37948420994163        2.52733507197789        0.24073461173009
H           -3.47018247007302        1.13918670874884        1.72975497362247
H           -3.44822741343476       -1.02602486335368       -1.66646210314120
H           -1.37619970079683       -2.15715091801244       -1.30708492447646
N            2.64505231164916       -2.05820465077197        0.97334964540220
H            2.28224203287934       -2.96360180264318        1.21181464412351
H            3.63574089988164       -1.90071001934668        0.94316815037711
H            3.53366409712747        1.74963911936617       -1.21314278994865
H            2.26639010400962        2.93394949442446       -1.07383228501271
