25
 energy: -48.255153556041 gnorm: 0.000467037604 xtb: 6.6.1 (8d0f1dd)
N           -4.11161191889650       -0.17452464115335        1.46929625625577
C           -3.09070499038126       -0.47338196515736        1.03949237091137
C           -1.82634635379384       -0.82935958980546        0.52906084613214
C           -1.34108048206323       -2.09873524399749        0.74033180639251
N           -0.31776763234287       -2.69770310798788        0.14536067925553
C            0.73430962015161       -2.16656486949884       -0.40910237026502
C            1.19405034664940       -0.79677616339667       -0.19608026204137
C            2.58590714880791       -0.59072051481941       -0.27945873226479
N            3.72004991103983       -0.48912673373260       -0.42911551024691
C            0.34602680977154        0.26683017333062       -0.02204260567348
C            0.79275749608353        1.54859194992856        0.46665576049500
C            1.81174562767678        1.47431087100006        1.44621311666256
N            2.61420947087134        1.42440297056801        2.26420465867058
C            0.30262690388658        2.80666196921803        0.17365289757884
C           -0.65117346779295        3.14626569319448       -0.79380658916972
C           -1.46854546356107        2.22793738447569       -1.41477417817845
N           -1.74755355928264        1.03341022420177       -0.93265744256272
C           -1.11257962951205        0.19336553343028       -0.20420901395970
H           -2.06478927979028        2.50880376466383       -2.27362464802990
H           -0.73988929253572        4.18672063502916       -1.06781026399284
H            0.79914548650156        3.62575150750327        0.67993301075638
N            1.51306907380501       -2.97459817581374       -1.14442459707197
H            1.25932104977644       -3.94576692608372       -1.21583377970110
H            2.42278545483878       -2.67331542496247       -1.45211868708737
H           -1.92559405220770       -2.76955992093447        1.36131802813437
