26
 energy: -42.373443963285 gnorm: 0.000602555734 xtb: 6.6.1 (8d0f1dd)
N           -0.62085920399894       -3.40945810767240        1.60557314568707
C           -0.07264785912089       -2.52177168715334        1.12044522523793
C            0.61293731537884       -1.44315183173876        0.53111056362323
C           -0.22429160116019       -0.29595024899509        0.18531380855552
C           -1.50791025786381       -0.55663899985418       -0.18451517092482
C           -2.56132195092079        0.37378379286899       -0.49598008380097
N           -2.74131440596547        1.57473223972490       -0.02430401576757
C           -1.85258947392750        2.22237638769384        0.75150984941325
C           -0.51460445440268        2.06421224474762        0.88364160263422
C            0.33992739170183        1.03632145957140        0.32695104106664
C            1.63247300786209        1.38527828886973        0.05734573648150
C            2.74092125624207        0.61229401278242       -0.39491210110388
N            3.78916673848918        1.32405156918142       -0.89036206271755
H            3.72398936567028        2.31873179331293       -1.00365569525452
H            4.60853556735445        0.85186206330396       -1.22554266026696
C            2.88370469376249       -0.75531358515075       -0.25925525565088
C            1.95222037561431       -1.63155756216972        0.30095037715686
H            2.33042797211131       -2.61679826206858        0.55162125901520
H            3.84190745387041       -1.17683907408760       -0.53372501236047
H            1.85177108574623        2.44335563326056        0.15643190299971
H            0.00734568010303        2.81738277558228        1.46143929594922
H           -2.30865675551423        3.06563118368974        1.26173370389385
N           -3.52825846658801       -0.07994589517084       -1.33110721921840
H           -3.58416670482337       -1.05549856129674       -1.56222373316656
H           -4.34324313095445        0.49620800836007       -1.45170106428796
H           -1.77629787680201       -1.59949501398517       -0.31008329764568
