25
 energy: -42.663828596416 gnorm: 0.000726087764 xtb: 6.6.1 (8d0f1dd)
N            4.74459487398443       -0.40072956381517       -1.24815517885614
C            3.68208682905620       -0.14353528596167       -0.88494895151841
C            2.38314521016962        0.10907185570217       -0.43092364256923
C            1.77513118307308       -0.88299659546469        0.44177572905933
N            0.51022398638437       -1.06788889822739        0.60837661352302
C           -0.57153701588415       -0.37840338974027        0.20967356173480
C           -1.67360107460115       -1.13498218797315       -0.12552217016709
C           -3.00889130746043       -0.71128841854178       -0.32819146273419
N           -3.60986134704974        0.36385968780475        0.15029791183954
C           -3.00413877525558        1.40334231997737        0.70827700384553
C           -1.69200076312054        1.80264683112301        0.67611897968570
C           -0.55789578415216        1.08154553701414        0.22116060732450
C            0.55597324956508        1.79732178627207       -0.20423439289301
C            1.79724448892608        1.34080272957170       -0.64552031530825
H            2.41192166456166        2.07011711713702       -1.16173700528555
H            0.40194133681938        2.86596129709726       -0.29577379090968
H           -1.49321595782921        2.81468250117706        1.00833417087346
H           -3.71480305427272        2.09096742587519        1.15831730418447
N           -3.83476727682213       -1.55411196819447       -0.99023247051569
H           -3.52138512524562       -2.45616771933112       -1.29715290698838
H           -4.80972329415828       -1.31759059628563       -1.04038614617655
H           -1.48329929542476       -2.19372792463097       -0.25165495779664
N            2.61553722476848       -1.68763572786214        1.12821800559976
H            2.22541515725221       -2.42058440289563        1.69377613302172
H            3.59723278651488       -1.69397692913116        0.91243893942259
