26
 energy: -42.372473249278 gnorm: 0.000717858424 xtb: 6.6.1 (8d0f1dd)
N            3.52111616179170        1.77048585369500        1.63895646652221
C            2.75782416243893        1.13519545479853        1.05727849738055
C            1.83221514231688        0.34874464675027        0.34961284889578
C            2.23148750713173       -0.89385371473680       -0.08397654548891
N            3.51034158235767       -1.31975746639589        0.13700314045943
H            4.08553772860007       -0.79934562927938        0.77846830343765
H            3.73624245127045       -2.28753002728836       -0.00863011359669
C            1.42653717930340       -1.77440165878950       -0.90812563435757
C            0.09217495092486       -1.85090671370255       -0.97926528216981
C           -0.87218490768432       -1.04776441978982       -0.23274070740225
C           -1.97461634569882       -1.63604758655214        0.29983623990818
C           -3.00287892616272       -1.00526855222996        1.05850476632485
C           -3.33020331793201        0.30953795244549        1.00252337114284
N           -2.92150956421682        1.19821753281528        0.06950485606562
C           -1.80828822271884        1.18487845986445       -0.55802906535958
N           -1.67705067211720        1.92851883628085       -1.68561065527681
H           -0.75972375908852        2.16904813918045       -2.01713850320461
H           -2.44969342674680        2.51780759372381       -1.94643144422737
C           -0.60588173714365        0.38259519903436       -0.18473080000164
C            0.56852133682821        0.98718285165756        0.04812885445183
H            0.59354731705052        2.07096409211240        0.07656219757335
H           -4.11446594282316        0.69996156079237        1.63937152730721
H           -3.59090299597200       -1.64836299899976        1.69919267356806
H           -2.03679940146034       -2.71560535215802        0.22273294664525
H           -0.33558667048582       -2.60949330114818       -1.62548697784710
H            2.00913046023547       -2.48135636838115       -1.48762391225050
