25
 energy: -37.843590678520 gnorm: 0.000656716076 xtb: 6.6.1 (8d0f1dd)
N           -3.71144679088197       -0.85568080660140        0.95346410068801
C           -2.65526468822326       -0.24866522260280        0.32989303028780
C           -1.56011970471780       -1.08148118049371        0.00973466470924
C           -0.25239243935100       -0.77072859470504       -0.32497236565738
C            0.62251395314766       -1.84688435208223       -0.65269958941456
C            1.98105635139857       -1.92977144288035       -0.52142261446451
C            2.88750693074043       -1.00579589039293        0.00102455319003
C            2.64426673400796        0.32396435907757        0.31528182949222
C            1.46048221796973        1.03921595682930        0.04483470655362
C            0.21316200348445        0.60492209458706       -0.35147425046811
N           -0.57675368787591        1.55974820643009       -0.88638337140586
C           -1.84347750342025        1.77877926072001       -0.77457736335264
C           -2.79065316425432        1.09392505142583       -0.01000723765227
H           -3.74856084872935        1.56585353251623        0.16082124471631
H           -2.19030291281885        2.64105218951686       -1.34072811594795
H            1.54588771051171        2.11840060525540        0.10933820421406
N            3.66753954043442        1.04092903609673        0.87864274257350
H            4.59612966199514        0.65638282408326        0.84435153081125
H            3.59574335464534        2.04351717703588        0.89264581616684
H            3.89879016948799       -1.35944987647640        0.15938505797313
H            2.41743843905145       -2.88324618614075       -0.79817986225823
H            0.12123879828089       -2.74837575816604       -0.98704884411417
H           -1.75787312209636       -2.14189757046210        0.12948197456881
H           -4.58646259369132       -0.36365379651597        1.00567631515676
H           -3.75021754659532       -1.85972822705412        0.97763442843280
