29
 energy: -50.346622127722 gnorm: 0.000562553339 xtb: 6.6.1 (8d0f1dd)
N           -5.28415617349121       -0.16172359824417       -0.20788520271944
C           -4.13849518780775       -0.08597513195886       -0.11954014772668
C           -2.74285862279762        0.03996006559590       -0.02990172830751
C           -2.03782938334744       -1.07676894416806        0.41166471522955
C           -0.67779400611052       -1.30473989570557        0.45497044627526
C           -0.33739759860260       -2.58655982397308        0.93755014955221
N           -0.09144329695198       -3.63246119106474        1.34826939340555
C            0.43985413406477       -0.47303357073423        0.06757737314819
C            1.58980127211753       -1.15362061819581       -0.26632875231539
C            2.90822505390660       -0.69156268931836       -0.52483238483183
N            3.47539338071956        0.43810633509592       -0.16534677310519
C            2.82238420974222        1.48594139198630        0.35262269054310
N            3.66699372370470        2.42260599615822        0.85066414532914
H            4.65392006216667        2.25737190571364        0.77311028845017
H            3.33135019978803        3.30245628755304        1.19491686672791
C            1.46101910824812        1.77721708562009        0.33721630574816
C            0.33514041509125        0.97634290535788        0.06701158802661
C           -0.85077690155415        1.68305915209394       -0.16527986930315
C           -2.18176140454517        1.31032485061367       -0.33033543054476
N           -3.04552527507342        2.27304403657510       -0.74191232527214
H           -2.72470273490205        3.20926622683527       -0.90831747853432
H           -4.02784294836033        2.07078395387518       -0.81296019848617
H           -0.69684728126673        2.75079992858519       -0.28910231068604
H            1.23297456513090        2.80817557120834        0.58454775590820
N            3.73600752607845       -1.55614861393363       -1.15351148225578
H            4.70500660874280       -1.30438031876533       -1.23871610686722
H            3.45525552449513       -2.50432389890888       -1.32610255263047
H            1.48581950118110       -2.22809084750315       -0.36416308434098
H           -2.65438726926796       -1.91420574660111        0.72357635767812
