30
 energy: -49.254684907283 gnorm: 0.000995657152 xtb: 6.6.1 (8d0f1dd)
N            4.07250147213498        1.73526744507636        1.15414623510718
C            3.14018350166335        1.17810695110581        0.76908905896607
C            2.02770373070932        0.48108076694439        0.27705929239644
C            2.14820892213636       -0.89084269432902        0.11749988129381
N            1.33254732582680       -1.64914254202412       -0.65294061496598
C            0.07255787820042       -1.46641546219460       -0.82308363223240
N           -0.54564489623940       -2.10444384622271       -1.84299768239708
H           -0.01120269820730       -2.74133345142849       -2.40953215902304
H           -1.54704826488008       -2.18539716565627       -1.82710931168681
C           -0.79206770893249       -0.55918747926311       -0.02546156837503
C           -1.83966276864904       -1.02873174210772        0.69337203605580
N           -2.07703204679753       -2.40809133032032        0.76539796107883
H           -1.24972742688018       -2.98195618541208        0.68199373980673
H           -2.64733917275381       -2.67802970473941        1.55354808911985
C           -2.79602241138715       -0.19611770072928        1.37895685052737
C           -3.15950713032179        1.05492873240232        1.02797705381456
C           -2.66792793269368        1.84249734801750       -0.05372553242539
C           -1.45529683805508        1.74826428913155       -0.65465922583075
N           -1.11008792318428        2.59599734999522       -1.67577486014343
H           -1.84214405335437        3.08604959861211       -2.16142401856520
H           -0.27310282385777        2.39579829783883       -2.19490795415202
C           -0.39388659928872        0.83122068090840       -0.20723372703722
C            0.88147950618894        1.26554438814060       -0.09307718003066
H            1.06993919000495        2.32553750418886       -0.21234409180846
H           -3.32274955494098        2.63764487831788       -0.38999917342689
H           -3.97511383124189        1.50407360975852        1.58190857308536
H           -3.33433180975323       -0.67620888660232        2.18718773730649
N            3.21635656247223       -1.57260265625314        0.63991797541391
H            4.01027945892658       -1.02574868719967        0.93362341755010
H            3.41208760175507       -2.46927471505713        0.22709569947800
