30
 energy: -54.061929701083 gnorm: 0.000631851173 xtb: 6.6.1 (8d0f1dd)
N            4.42511528072796        2.08092955679903        1.25352739387237
C            3.57843991769884        1.45232006777547        0.79070672059811
C            2.56794601675908        0.66304503516270        0.22387876041445
C            1.50438167985189        1.34052134248176       -0.45583108617326
C            0.26704429543349        0.84845381753886       -0.69333978617840
C           -0.73752857636761        1.60990482948338       -1.43624893824508
N           -1.94602370857032        1.79722656206090       -1.09936171753120
C           -2.57987248864787        1.28642609913380       -0.00818774919667
N           -3.49827078831587        2.12696675156479        0.53523375574437
H           -4.17995849292413        1.76343980224342        1.17912952282498
H           -3.70521512490919        2.97651766170472        0.04060620631792
C           -2.43231062133971       -0.01217450721487        0.44861962904926
C           -3.39269912895725       -0.50039046699933        1.34548977141086
N           -4.18285635634382       -0.90371895086532        2.08043815917345
C           -1.38126043707755       -0.92449400735632        0.03451455079663
N           -1.67875025323941       -2.28480846656366        0.14309970013525
H           -0.88334803474048       -2.88271022321665        0.31668136191137
H           -2.45436123442646       -2.48637185332488        0.75908588748647
C           -0.16865502225993       -0.51977362654163       -0.42461017646721
C            0.83898140170941       -1.49466051224907       -0.91806095121429
N            2.04123608689236       -1.59944132000724       -0.47767511679338
C            2.69993779947913       -0.71885113414771        0.30826797671652
N            3.64428992501196       -1.28274971147804        1.11386262958618
H            4.35840275544016       -0.68424045813069        1.49564409908232
H            3.88544364165569       -2.24192352787422        0.93286361598146
N            0.44405457413624       -2.30478800312076       -1.91948413897821
H           -0.52972321262992       -2.37349928195444       -2.15505753917408
H            1.10038334356410       -2.95655167098843       -2.31393206606510
H           -0.44122621508333        2.06470214715790       -2.37879199215921
H            1.69486999162071        2.37436330523362       -0.71672148504181
