31
 energy: -48.967855344352 gnorm: 0.000681644770 xtb: 6.6.1 (8d0f1dd)
N           -1.02940074001504       -3.38494346912801       -1.15060773909609
C           -1.08286795611948       -2.29773622322453       -0.76332345772115
C           -1.20467628606221       -0.97632415703195       -0.31200226413343
C            0.05085628304924       -0.34744107931424        0.03732593760484
C            1.04055531853869       -1.22524835113738        0.42823882811367
C            2.43964514806379       -1.09220019421942        0.59244732835992
N            3.06287880957635       -2.15592258224249        1.19702981092961
H            4.06209193944855       -2.22974866965682        1.10745021674452
H            2.56059766579668       -3.02577275143162        1.24952755351358
C            3.22492841075935       -0.04167912630549        0.17454543818948
C            2.77992444981958        1.17015299010259       -0.38879371051404
N            3.77668693469206        2.03125769054942       -0.80223189842004
H            4.67775634800666        1.63105589538909       -1.00140091072899
H            3.50457268216209        2.79464236992535       -1.39888081156393
C            1.48599365047544        1.64167180576541       -0.45304760449780
C            0.23230184799757        1.08608598857457       -0.08315953009810
C           -0.78153262096444        2.01376622987090        0.10956609555613
C           -2.15276870878598        1.88147115169943        0.38555217542931
N           -2.80495008514822        3.04779594200889        0.71441912782096
H           -2.24934797750991        3.81975213033190        1.04094936910553
H           -3.72804355288065        2.97321646882897        1.10617325816487
C           -2.93481233616294        0.74888184609142        0.24312703105065
C           -2.52519175093960       -0.50846722829524       -0.21546866044857
N           -3.52347977692568       -1.36914755310663       -0.57092463683228
H           -3.30317345616159       -2.32944471801679       -0.77128731695137
H           -4.47636528303832       -1.12851764256018       -0.36899539751052
H           -3.99904975289797        0.87051903670842        0.40765407070487
H           -0.44857045242736        3.04653549135860        0.10388896009433
H            1.41137157282370        2.65799475927415       -0.82789608666646
H            4.29726618122520       -0.15410431575901        0.27902827538511
H            0.69343380550455       -2.23336660034651        0.62867947791747
