26
 energy: -51.216245473387 gnorm: 0.000524850049 xtb: 6.6.1 (8d0f1dd)
N            4.78560948762679       -0.17551844007350        0.01149059403011
C            3.63409452378980       -0.17368831642881        0.00197062173682
C            2.23039566167808       -0.18521336216016        0.00003927125886
C            1.61705811635593       -1.37212406891457        0.51280390763688
N            0.42083103857382       -1.81724944986020        0.19458551294189
C           -0.56351383270222       -1.12400043015293       -0.31926632372089
N           -1.41312723705827       -1.64863772772850       -1.16217381027969
C           -2.65687861715505       -1.32055368662931       -1.41679969009055
N           -3.52932281872189       -0.74979159786956       -0.62547300030462
C           -3.10848279298053       -0.03553993423265        0.43473202970652
N           -1.96249934512345        0.61180100857097        0.53047925406743
C           -0.79851580896106        0.31178666280214        0.00423595345028
C            0.18840101565699        1.26061566185123       -0.26757325763901
C           -0.22380439227526        2.60211400983832       -0.38093757889438
N           -0.53647551228311        3.70325170642436       -0.48531271249241
C            1.57766530856905        0.98661886428211       -0.43425305794832
N            2.33840916738325        1.98198326825591       -0.93803016921391
H            3.34098302926755        1.89459819038675       -0.94609442897936
H            1.92363577016979        2.87965313329666       -1.12550392890029
N           -4.01595011191912        0.17538582768458        1.40674611364002
H           -3.83415756881768        0.89058049577153        2.08923425299069
H           -4.96308543462681       -0.10851112938636        1.22630977600684
H           -3.04561664002790       -1.69260495940870       -2.35888442696266
N            2.35554752067158       -2.18483560243802        1.29385631080559
H            1.97470163482910       -3.08652382779884        1.52382695698528
H            3.34098649198102       -2.01951173778347        1.41057988806943
