26
 energy: -42.361683075217 gnorm: 0.000576829369 xtb: 6.6.1 (8d0f1dd)
N           -4.15453766685563       -1.47808300337070        1.32210131639406
C           -3.26298610902662       -0.87617344532827        0.91808445560233
C           -2.16429347968645       -0.15527184611686        0.40855140950394
C           -1.03364505953624       -0.95252481783161        0.00177680671868
C            0.23352523840143       -0.53092615725009       -0.15522470818040
C            1.26504006258446       -1.45180399775028       -0.68400028886905
N            0.95615620723025       -2.05721930407182       -1.86702901336562
H            1.56878597962414       -2.77440109865943       -2.21711462146568
H           -0.00755277995200       -2.09753092512676       -2.15189076335104
C            2.43744716951473       -1.68636703367126       -0.03995882460472
C            2.89242359188741       -0.99102338670730        1.12282536151501
N            2.66431972688587        0.21981250865458        1.47993877161379
C            1.85606591328640        1.07984937830630        0.80804536692404
C            0.73020366125783        0.81748011392534        0.10577733200860
C           -0.03829217575496        1.91743937659869       -0.50430840809639
N            0.70887019072546        2.84722363624872       -1.16098583955606
H            1.69179522830284        2.68789772072749       -1.29058784913156
H            0.25737807569719        3.53785979494205       -1.73495227491930
C           -1.38595828532799        2.07768838876707       -0.37655340954114
C           -2.30937041424211        1.19097212939337        0.22393704178109
H           -3.27249322317086        1.61682082139352        0.47928364491876
H           -1.80047128619513        3.00964509043442       -0.74229139525242
H            2.12869637518577        2.11589670076200        0.98179789273911
H            3.60012433802521       -1.52124738602769        1.75450508959641
H            3.06880385493337       -2.48771088624494       -0.40382630046338
H           -1.25025515249487       -2.00347912949432       -0.15797022221647
