27
 energy: -46.894201652905 gnorm: 0.000849116277 xtb: 6.6.1 (8d0f1dd)
N            2.02207021491463        2.40432361854721       -1.66390425727521
C            1.85857477670158        1.44547215319912       -1.05247531423443
C            1.69022582952607        0.20809465776353       -0.38952124600629
C            2.80320541740580       -0.64714341939490       -0.49012825952178
C            3.01989664003988       -1.83674273817545        0.16324874835363
C            2.07314928788308       -2.39450208427360        1.03935143569991
N            0.79753802733067       -2.22069589556863        1.00851063890339
C           -0.01202794498915       -1.42743457009387        0.30944886759090
C           -1.21358723199735       -1.94248464985827       -0.12603122800413
C           -2.37819673982460       -1.25450692224143       -0.51199307206911
N           -3.35303363045701       -2.00182651932158       -1.09100932789461
H           -4.26146784258095       -1.61116843096757       -1.26313465459147
H           -3.22845191616990       -2.99114103908773       -1.20361599188423
C           -2.67703245192435        0.08352079978175       -0.25336916925804
C           -1.87462892328391        1.07996552310885        0.29844271993911
N           -2.48419042699824        2.23444497163922        0.66525470292576
H           -3.45095860308678        2.38501559044017        0.43878954847046
H           -1.92482684083622        3.02836494019196        0.92991047180596
C           -0.45692142734566        1.04158145162020        0.42052731562012
C            0.15883299973991        2.23584570034746        0.84211386146778
N            0.60407269460018        3.20435993188527        1.27613944256950
C            0.39744823835645       -0.03709395757104        0.12971891238950
H           -3.69844480109112        0.38020199793569       -0.46282411791198
H           -1.27475274546577       -3.02358594119757       -0.13132371218192
H            2.41718882836448       -3.07312841743264        1.81453131063802
H            3.99627493408015       -2.29351573473365        0.10357755610904
H            3.62454921890823       -0.24811221154214       -1.07452585114946
