27
 energy: -44.461136341521 gnorm: 0.000703377350 xtb: 6.6.1 (8d0f1dd)
N            3.36599736033687        2.62326710197899       -0.02166472858930
C            2.92349165509860        1.55835931005584       -0.02034371033346
C            2.33733174701468        0.30038010266037       -0.01072834762853
C            0.94609948029109        0.00333844374032       -0.01057294636300
C            0.79033316684190       -1.43511351805670        0.00336849094728
C            2.00804684078044       -2.02710727320291        0.02223575319854
C            2.98173302031129       -0.94774554805959        0.00837822856199
N            4.33043679282487       -1.14894452077847       -0.05294218425375
H            4.68330115238433       -2.04522896638256        0.23755922082494
H            4.92316838867328       -0.35631264522796        0.13295507400017
H            2.27396427901785       -3.06892863477843        0.04415865923501
C           -0.69711231181836       -1.24184230650460        0.01855658410496
C           -1.83205987846936       -1.96324274398275        0.02085809727316
C           -3.13163591869491       -1.38288323300403        0.01883377454709
C           -3.50840821251443       -0.06078809736870        0.03374585563088
C           -2.70382886628677        1.12548682473283        0.04853676837411
C           -1.34340362191102        1.28843374060629        0.04886474396912
C           -0.44405318138371        0.18324163755469        0.01848783578017
N           -0.77337285984464        2.52721809771758        0.12096632157157
H           -1.33703426715555        3.34680894017394       -0.01625966226810
H            0.21624311626145        2.61072185206122       -0.03739050894475
H           -3.28034420499707        2.04486906904962        0.07320629045512
N           -4.87194654394463        0.19964861918586        0.10886117283354
H           -5.18383115115870        1.10116397196083       -0.21196738159404
H           -5.48495955762227       -0.56042648310356       -0.13674521621335
H           -3.94728510564994       -2.09619669074665        0.01087407488727
H           -1.77839090508564       -3.04277632028184        0.01532810869348
