24
 energy: -40.489290258429 gnorm: 0.000600128450 xtb: 6.6.1 (8d0f1dd)
N           -0.94836615258728       -2.90953644201051       -0.15026478619980
C           -1.38298973296132       -1.62283412404260       -0.01786098840828
C           -0.36672089296497       -0.64460232699711        0.22198794243710
C            1.01269539081624       -0.67062051821972        0.45938269474273
C            1.06878367165844        0.75331057048333        0.19051607747590
N            2.26751219066551        1.09696919144443       -0.16859138261604
C            2.97404895076645       -0.11299582424629        0.01645101214734
N            2.26989710020286       -1.18584249987466        0.33768362112110
N            4.31719611531908       -0.11082268637637       -0.13351465946494
H            4.76008860861463       -1.00762665986257       -0.23479122079941
H            4.70509343731883        0.66660325775822       -0.63938985149466
C           -0.42606375014094        0.80037432405190        0.13553529944203
C           -1.42524672506278        1.69842681958865        0.01511748865475
N           -1.16672025429487        3.05011460304451       -0.16827064963342
H           -0.21853338731550        3.32332862558999        0.04207408040232
H           -1.86635127094969        3.68485636180055        0.18340869275914
C           -2.80319927755361        1.26941738357890       -0.00879734416488
C           -3.31417610296078        0.01460325054921       -0.05718281544800
C           -2.70428788944926       -1.27632157610922       -0.10617114386142
H           -3.40150012465067       -2.09759384367974       -0.22617956473866
H           -4.39671978320017       -0.03639582098809       -0.08472934038598
H           -3.51759603411163        2.08397195614159       -0.01296031074454
H            0.00493966349783       -3.10283756612416        0.10639977384437
H           -1.61001123125645       -3.66490846700042       -0.11980889666676
