27
 energy: -49.267614256697 gnorm: 0.000960407694 xtb: 6.6.1 (8d0f1dd)
N           -2.32329116296348       -3.64390130736087       -0.00818883441665
C           -2.15030035013189       -2.50522859212122        0.01021810302670
C           -1.88264282941242       -1.14112176913357        0.01943340036827
C           -0.59907172403648       -0.52445245169851        0.03872292634554
C           -0.76900921082543        0.90235601774370        0.02610804924345
C           -2.10260218683179        1.20281738694785       -0.00794708406718
C           -2.75852108717486        2.43403625508791       -0.06010193366570
N           -3.32921008861257        3.43007695087572       -0.11664516663942
C           -2.80739031230547       -0.08883390976017       -0.00504374002610
N           -4.15793430178448       -0.18927139236493        0.02488253968123
H           -4.71250868809845        0.63062214649154       -0.15148085622238
H           -4.58316150614836       -1.09020567027951       -0.10921842352257
C            0.73061729269239        1.05781696779805        0.02656092659268
C            1.68916347205017        2.00678860337208        0.01787825735430
C            3.07162148539274        1.69047671425693        0.02793464710463
C            3.68853664784931        0.44971546194906        0.03280347531983
N            3.19812393626611       -0.81604318940930       -0.00573402457332
C            1.96408360889134       -1.22551252585697       -0.00497822577584
C            0.80436082457785       -0.38002313012911        0.02900044368394
N            1.74528598071022       -2.55658265138749       -0.05990976995705
H            0.81071914415579       -2.92465456860510       -0.02855592771321
H            2.53014683504695       -3.18292533307926       -0.06322750386021
N            5.05981897579237        0.42117343180509        0.12543998491365
H            5.49031920796104       -0.46789160677020       -0.06239730396296
H            5.58311275064192        1.24549764849926       -0.11155247133568
H            3.74513565509653        2.53732917129337        0.04184809888813
H            1.41369738860629        3.05127432693708        0.00983086971577
