27
 energy: -43.645833091981 gnorm: 0.000559779604 xtb: 6.6.1 (8d0f1dd)
N            4.88761560880769       -0.01854040011937        0.03806089281351
C            3.50854926218893       -0.06808255293847       -0.03038595683749
C            2.71561458424644       -1.19383651472057       -0.01657737727373
C            1.37999324289792       -0.72052516562359       -0.01532454992440
C            1.41284590732612        0.74019516620489       -0.03049688919265
C            2.68887726191257        1.15692914166867       -0.03838749212787
H            3.10444957388899        2.14961572558793       -0.05004011042777
C           -0.08755137906149        0.74585191709245       -0.03710300299313
C           -1.12537971924567        1.61007066537815       -0.04048919629100
N           -2.44583920474084        1.25138013798451       -0.02318138740335
C           -2.95939774905245        0.06504210648682        0.00161192121126
N           -4.33655249142197        0.06562593185162        0.10657161096836
H           -4.84280986059442       -0.72828692861137       -0.24671066132535
H           -4.76143899340498        0.96495127473788       -0.05221712530038
C           -2.39156719906149       -1.26799138492312        0.00758493779586
C           -1.08436814787735       -1.65585479979710       -0.01169366721716
C           -0.01443937142916       -0.70328816361145       -0.02754028569796
N           -0.72266785134373       -2.97384527106792       -0.05985419390950
H            0.23901311305415       -3.18942173665581        0.13900736179461
H           -1.40720901366224       -3.67568723160077        0.16258442348942
H           -3.13033469287202       -2.06133220774924        0.03999980170054
N           -0.93602165396968        2.98737275586746       -0.13357477920727
H           -1.73007254949061        3.51688604822602        0.19215461598963
H           -0.04872070002749        3.30965560318092        0.22110963098063
H            3.06343399864647       -2.21121014580206       -0.00926526100421
H            5.30763643449998        0.81485862338533       -0.34387970932695
H            5.36123215338628       -0.86882901443191       -0.22603387278359
