21
 energy: -37.321207259666 gnorm: 0.000898833322 xtb: 6.6.1 (8d0f1dd)
N           -0.34315406868537       -2.62881612313072        0.03934131692777
C           -0.74707820619086       -1.33775707533705       -0.05174422554652
C            0.25663118282527       -0.37941100992848       -0.41534270104453
C            1.62745684672336       -0.43472531070878       -0.68388193951237
C            1.70212801810202        0.94356953614971       -0.18772210745103
N            2.83813496180780        1.09377609452090        0.42372995826008
C            3.50386670460610       -0.09149042145125        0.14406147845502
N            2.82176460508558       -1.04146819610135       -0.45172134225120
H            4.52033973122898       -0.22697001438331        0.46158621483608
C            0.22177895273669        1.05452209052977       -0.19547183105271
C           -0.79192813761569        1.90049213175674        0.05009876974819
N           -2.10506266421470        1.57244090439828        0.01683389836140
C           -2.62357963110074        0.37839345377340       -0.01069339997934
N           -3.98137415432064        0.37822383236769       -0.14454818698172
H           -4.43576774320638        1.27399827349970       -0.10374933394973
H           -4.52101178725275       -0.44341061138497        0.05784508133640
C           -2.04612426394009       -0.94481849574429        0.11486941690719
H           -2.76411679277055       -1.72886720772362        0.32671488271024
H           -0.60836278924463        2.94478361718295        0.26708719848428
H           -0.96163615400166       -3.33921566936711        0.38651693657598
H            0.64020079432816       -2.82898895341828       -0.02839380853336
