27
 energy: -44.473023448568 gnorm: 0.000826837000 xtb: 6.6.1 (8d0f1dd)
N            0.56789763457263        3.49830995525066        0.05337472558976
C            0.02369828199169        2.48343256598056        0.01255237324258
C           -0.61487139285815        1.23531772836241       -0.01187634723459
C            0.19240096841846        0.11181281987510       -0.01884974899543
C            1.57554186174189       -0.18565976024124       -0.01904861092513
C            1.27687436043818       -1.62035457285871        0.01917685324043
C            2.47427815795658       -2.30656067050655        0.06246645284480
C            3.49005017188069       -1.33184128337177        0.04542927348984
C            2.95788860322797       -0.01815422988663       -0.00542470845639
N            3.67098864360412        1.14712608825682       -0.10814270666701
H            4.63148994565146        1.12484035846098        0.19146648783596
H            3.17086014812139        1.99970931322485        0.08682437664359
H            4.54367342189138       -1.54987671247271        0.06999737457535
H            2.64138073547738       -3.36830571886435        0.10414738686434
C           -0.12367674063024       -1.32661931773317        0.01081831829333
C           -1.32305080167348       -1.98221141687498        0.02253227938782
C           -2.57180595062890       -1.33496042609803        0.00948294530747
N           -3.66531528920152       -2.15332267181375        0.05753090156033
H           -3.54039606426285       -3.13980063483970       -0.08384914768359
H           -4.58064605125198       -1.77532245068928       -0.10985094549404
C           -2.84598769856729        0.04273574991289       -0.00234480481802
C           -2.04199360890271        1.17841029758655       -0.00678636703388
N           -2.67735703117711        2.38255246243741       -0.04309560589731
H           -3.67238114723278        2.43425582954762        0.07995836622233
H           -2.13993648400424        3.22727387628892        0.05147895938715
H           -3.90844120232902        0.27055975406825       -0.00414923400260
H           -1.32333144445346       -3.06430034300206        0.04185176592299
