20
 energy: -39.194184409392 gnorm: 0.000694524997 xtb: 6.6.1 (8d0f1dd)
N            4.92488664137053        0.54680629624815       -0.00025216142816
C            3.78010675212354        0.49770568575753        0.00035775384250
C            2.36139478798449        0.43900300753968        0.00010329405556
C            1.82850269886586       -0.86510792863876        0.00049274917691
C            0.49468141716599       -1.25656343120379        0.00055877763587
C            0.17435156847358       -2.63526837169389        0.00075430172766
N           -0.10574486847308       -3.74641837681236        0.00144826374583
C           -0.54882827052104       -0.32174973543588        0.00030957886585
C           -1.96667885539185       -0.27862654651128        0.00068000013304
C           -1.93448685212915        1.19228146069406        0.00062107836296
C           -3.25654401380989        1.59254212392574        0.00158043841334
N           -4.05584322129674        0.49841276868426        0.00214910410204
C           -3.31821653042126       -0.61949335984069        0.00166452071825
H           -3.79237998041082       -1.58282427831696        0.00204367767947
H           -3.69426072582090        2.57274861824484        0.00191186179189
C           -0.50038552277732        1.15167827085920        0.00011970214202
N            0.45480821190882        2.04270567861493       -0.00017421443907
C            1.73073798639414        1.69639498568702       -0.00027420225717
H            2.39844624312287        2.55360994496490       -0.00061589872335
H            2.56248856774226       -1.66446927716672        0.00074869555453
