24
 energy: -40.497831468729 gnorm: 0.000647355516 xtb: 6.6.1 (8d0f1dd)
N            3.86820372334365        0.03204493944230       -0.31098674884378
C            2.52577070175026       -0.03291904861554       -0.06965300764315
N            2.04423983793491       -1.23987021213515        0.00123719442107
C            0.74429280768412       -1.62338267977845        0.07080396034620
C           -0.31230217473295       -0.77159781085410       -0.07421999886557
C           -1.81494975744740       -0.74237593321086       -0.13204602940488
C           -1.75432794646914        0.70276887232635       -0.27057189444476
C           -3.08202636375543        1.20343278544783       -0.23272662983662
C           -3.88913917986617        0.11012381120815       -0.05467295081050
C           -3.09936051617793       -1.11248142382911        0.05287002358901
H           -3.51649201856799       -2.08429262493667        0.25086143427212
H           -4.96249956401446        0.12542963147533        0.00867184445371
H           -3.40612606057576        2.22305439682656       -0.34508494236677
C           -0.35375779678879        0.65980388781026       -0.15030046210225
C            0.74911257621791        1.56327313414921        0.05638106472320
N            2.00141476923653        1.21853757323395        0.07518300107932
N            0.44888422369132        2.86493177308029        0.24607788674879
H            1.18435598489568        3.51819302303961        0.44753693232291
H           -0.51133326410024        3.15649565407199        0.26968570290481
N            0.56126070031107       -2.96922736573125        0.31049374575422
H           -0.32867181659328       -3.34816385580273        0.03080003517186
H            1.36631841387363       -3.54334621680515        0.11988188661404
H            4.32435396734679        0.90801100541059       -0.12746175125660
H            4.39294644700353       -0.81895643042367       -0.21194445672651
