25
 energy: -45.835830500857 gnorm: 0.000747599515 xtb: 6.6.1 (8d0f1dd)
N            5.38722892399616        1.02910461448979       -0.03476483352837
C            4.26152373587685        0.78977315412617       -0.01277620005637
C            2.91160697348136        0.44150223546895        0.00031246615256
C            2.46425126237647       -0.92398660030409       -0.01395194566850
C            1.07359878058933       -0.84807892799366       -0.01020078951966
C            0.68553143555677        0.56983906224880        0.00396876038764
C            1.81618940645971        1.34987390940906        0.01136282787756
H            1.90835981078231        2.42013633662323        0.02189209512326
C           -0.69094320100238        0.19005417894346        0.00244757003907
C           -1.93908777092538        0.77381622164950        0.00541704715647
C           -2.05651870291757        2.17530588862934        0.01020599550219
N           -2.19372251283283        3.31681463368666        0.01277962831239
C           -3.14918957602821       -0.00451816769280       -0.00052416999829
N           -3.32612545504042       -1.31978821471974        0.00319928999126
C           -2.46508087416742       -2.31773175900853        0.00360753988699
C           -1.07548205842760       -2.36757452038076       -0.00685228034677
C           -0.29265279610920       -1.23062410279519       -0.00846070916864
H           -0.59992786643440       -3.33837728684182       -0.00868305061546
H           -2.97670639210820       -3.27802006438690        0.01182865421898
N           -4.30989040951250        0.67761974527711       -0.00840017535134
H           -5.16628215939238        0.15056794642489       -0.00940775641330
H           -4.32734215609897        1.68362382887180       -0.00807529014351
N            3.27768030522568       -2.00810457867354        0.02450899193639
H            2.89718929372325       -2.91433391408107       -0.18475735716743
H            4.26281448882954       -1.86799278076994       -0.12753806700434
