28
 energy: -53.784036528399 gnorm: 0.000843793043 xtb: 6.6.1 (8d0f1dd)
N            5.37921315872673        1.18717170685071       -0.06329310150601
C            4.36874233577549        0.64260593599375       -0.02174394948170
C            3.11521768065347       -0.00409503682741        0.01122986186148
C            1.95713314584762        0.87909120505742        0.04207038278732
C            0.71567766872793        0.33880310205181        0.01358891122165
C           -0.72667364603151        0.77499473070109        0.00287296580335
C           -1.12330212519549       -0.61054303157107       -0.00889393545923
C           -2.54904477320033       -0.67710210920308       -0.02577785377998
C           -3.32240548831841       -1.83264492524971       -0.04747917930379
N           -3.91591869886667       -2.81892976340072       -0.06954177361879
C           -2.99213026488799        0.64869101410991       -0.02194582434509
C           -1.83465359719677        1.56833752225659       -0.00361677572308
C           -1.93850736106420        2.96091612679406       -0.01331175309397
N           -2.02456799704382        4.10671528894639       -0.03343167709187
N           -4.27031572537630        1.08559545584249        0.00337614472164
H           -5.02013758242987        0.42639030336880       -0.11008766746850
H           -4.46507506109312        2.06474806769676       -0.10964881236359
C            0.22043392615113       -1.01840936025617       -0.00089609249108
C            0.95309287769531       -2.25628015923297        0.01478458476636
N            2.25532301294275       -2.36339433684445        0.00749106166929
C            3.16849944144607       -1.38149770071860       -0.01072804023764
H            4.17244934292065       -1.79839218219316       -0.04341948317413
N            0.23624422482462       -3.39269886335668        0.03838765826062
H            0.72314324416264       -4.27238312816372        0.05573683943842
H           -0.76931844179708       -3.37252258348780        0.04119380409776
N            2.16161238346188        2.23070877322532        0.15142589421621
H            3.07359397071319        2.59508510063399       -0.06680922700957
H            1.37737074185350        2.83602746927765       -0.02238341999571
