25
 energy: -45.833131740695 gnorm: 0.000687217591 xtb: 6.6.1 (8d0f1dd)
N           -2.48326319485587       -3.26827007458794        0.03911216506564
C           -1.50456496337459       -2.66654700862563        0.02101813177490
C           -0.34469904384033       -1.86949473452280        0.00577333083735
C           -0.51724536657014       -0.48593060090100       -0.00975032125321
C           -1.55898298275110        0.45764480269313       -0.01119004097579
C           -0.57306115399211        1.55560780468169        0.00991324621629
C           -1.26535881650306        2.75169661949509        0.03636949016353
C           -2.63189674026605        2.42046667191142        0.03031175945491
C           -2.84091012888937        1.01460784483799        0.00136179777680
N           -4.03104742383661        0.37110428221535       -0.05822285347694
H           -4.87730666030513        0.88391611484716        0.11621881759157
H           -4.05044295782221       -0.62726705102300        0.06151041824086
H           -3.43076121004747        3.14058088080555        0.04738484955880
H           -0.87111677987495        3.75114898279559        0.06004658120878
C            0.48024787761545        0.60242204990271        0.00579285780131
C            1.86328832639398        0.54260081240908        0.01015948836441
C            2.61065765715137        1.73351506917647        0.01994116545271
N            3.25349260724248        2.68677508143984        0.02840889366809
C            2.57502815098012       -0.69854418458093       -0.00934944177116
N            2.13323033186027       -1.95854977045033        0.01442088414546
C            0.92673216529499       -2.46494118103282        0.03024704898411
H            0.93839039746492       -3.55269321370462        0.06490473501243
N            3.92054424708263       -0.63497559691747       -0.04775883322324
H            4.43327276751762       -1.49984271653201       -0.05448830445772
H            4.40279157172523        0.24785402076746       -0.05954554045984
