27
 energy: -49.272056330706 gnorm: 0.000828054957 xtb: 6.6.1 (8d0f1dd)
N           -5.01412600867852       -1.88720275785312        0.03223819340247
C           -4.01601920542648       -1.31213419476551        0.01199272580203
C           -2.79673195881842       -0.61892622228308       -0.00084759377135
C           -1.62355269052173       -1.45946095251293       -0.00100183415458
C           -0.38234755679025       -0.96394184635558       -0.02177091928338
C            1.05145542465201       -1.40455486189780       -0.03380208780435
C            1.44677028511126        0.00148982641819       -0.04423969807559
C            2.86904560450892        0.06371395829118       -0.04717569562663
C            3.65106161810401        1.21171306564067       -0.06506333788809
N            4.25739616355650        2.19120356356521       -0.08388355912159
C            3.29657412657363       -1.27086659975996       -0.03392467778037
C            2.14698002664858       -2.18436096908336       -0.02011766617262
H            2.24247324646162       -3.25482025046451       -0.00164289255372
N            4.57686060108724       -1.69807145398479        0.00409448998785
H            4.78289427989523       -2.67431007554828       -0.10676878336645
H            5.32482668343403       -1.03425936774976       -0.09696991318251
C            0.11677785839892        0.40626768419645       -0.02679685615459
C           -0.62606070345432        1.63870588879114        0.01311853997335
N           -1.92032021100562        1.74449241794021        0.01679562083737
C           -2.87484596630745        0.77789694435366       -0.01384533177099
N           -4.10932833364086        1.34876346563993       -0.07662559781959
H           -4.16426190804170        2.34603229110661        0.02227887609454
H           -4.93852608693763        0.78741702222660        0.00715541814083
N            0.09372556185899        2.77662336573385        0.05925440591524
H            1.09842696348803        2.74947701548615        0.04550645656123
H           -0.38427923635221        3.65994178897375        0.08494555517590
H           -1.79531901960356       -2.52651314360467        0.00862047773569
