26
 energy: -44.759176909693 gnorm: 0.000661248375 xtb: 6.6.1 (8d0f1dd)
N            5.50725901273938        0.50622435985787        0.02695360843087
C            4.35565676158497        0.48056093420362        0.00109940910538
C            2.96564648845990        0.39599773545154       -0.01059009853233
C            2.26106141205247       -0.86128948826110        0.01199128415711
C            0.92081396813875       -0.52367902222935        0.01475689164738
C            0.80394299849527        0.93727233867168       -0.00353920147097
C            2.06626538127131        1.49141870175715       -0.02049942391530
H            2.35969353289541        2.52495971130440       -0.03583476838051
C           -0.61669633284630        0.82645863193659        0.00710078176049
N           -1.61066354717342        1.66367888154828        0.00495460990205
C           -2.88825171454922        1.24334486067136        0.01310410338318
C           -3.43508199943350       -0.04869959177714        0.00949894407774
C           -2.84514257121815       -1.31669331442740        0.01359000823717
C           -1.46365736299491       -1.62206779277069        0.02191018724150
C           -0.50338004215330       -0.65565827152269        0.02119733266367
H           -1.18109247356615       -2.66733717755503        0.02386121424368
N           -3.69287453374791       -2.38075064440301        0.03786794111538
H           -4.68179458168456       -2.24443141566640       -0.06910587542293
H           -3.32960242809568       -3.31065930899855       -0.06382677565415
H           -4.52056296945101       -0.06267987278995        0.00742687292546
N           -3.75484231479371        2.28472336160393        0.03128192149527
H           -3.36446999083368        3.20924994205868       -0.01058060605566
H           -4.74771520250503        2.15463696473461       -0.02277564281744
N            2.86469750859102       -2.09096069544201       -0.04335046689916
H            2.32844586385291       -2.87762810332878        0.28307316092049
H            3.84676657966470       -2.11127396452841        0.18428654424143
