26
 energy: -50.336276826174 gnorm: 0.000907942874 xtb: 6.6.1 (8d0f1dd)
N            2.50064195891190        3.99829847320985        0.00789013000855
C            2.04778053658773        2.94153996296762        0.00863767767695
C            1.48899780024140        1.64707126700284        0.00558290136377
C            0.05661482725949        1.64367221153418        0.00801534481296
C           -0.68215060110710        0.52441993226346        0.02022303409549
C           -2.12593493793485        0.10273318441294        0.02575125790606
C           -1.68112545802869       -1.27214775063168        0.04614635961239
N           -2.71572858981013       -2.15517915275597        0.04209407281799
C           -3.77899965826743       -1.39622115483579        0.01646881719374
C           -3.48653609774902        0.05705300351345       -0.00141431232926
C           -4.44787952723661        1.06943893281917       -0.03961883940964
N           -5.24074667185882        1.89897661599586       -0.07655056206780
H           -4.76655322771351       -1.81834968980368        0.00864361375206
C           -0.33170391257443       -0.87743760471351        0.02970529741329
C            0.92531589290155       -1.53972542732561        0.00654191956008
N            0.88115600793814       -2.88564136847330       -0.00058646064230
H           -0.01728789262665       -3.33911004939225        0.00998395199537
H            1.71986963889689       -3.44074773847334       -0.01770647780539
C            2.13219363166867       -0.83850423875940       -0.00737599549465
C            3.27659928344933       -1.66580342988846       -0.02965900193470
N            4.18492095840990       -2.37050124129070       -0.05007001085297
C            2.39957881401086        0.58331521073698        0.00061587131624
N            3.71966702159511        0.90664866687269       -0.00016638992894
H            3.99793135194814        1.87290765972029        0.00242588479151
H            4.42913514021726        0.19523115664330       -0.00543887355901
H           -0.42519340583144        2.61130393555093        0.00140720280614
