22
 energy: -37.063419316935 gnorm: 0.000912441744 xtb: 6.6.1 (8d0f1dd)
N           -3.28217553574531       -1.92925796625092        0.02023359083469
C           -2.45498146615152       -0.85765295738188        0.00896922965266
N           -1.16506906522067       -1.20631336356674        0.01050008775568
C           -0.21088760049301       -0.31330033770009        0.00719035519829
C            1.20300967800443       -0.35979443031141        0.00456746305727
C            1.26364284981628        1.10541698366425        0.00015340344094
C            2.60624715906629        1.42705509560983        0.00276599104078
N            3.35296207146298        0.30152111360553        0.01199112617767
C            2.53801878240223       -0.78307759222953        0.01093134464759
N            3.05209212415064       -2.03734127045487       -0.03802303252025
H            4.03672997188974       -2.12050983392291        0.15133517854622
H            2.45622677942666       -2.80375040931005        0.22146989597671
H            3.09812920702064        2.38296600215718        0.00431869512513
C           -0.16809593432839        1.17663367318778        0.00221043000197
C           -1.18490959145988        2.08804345778426        0.00222544602691
C           -2.53016528068347        1.69036890008436        0.00642363509725
C           -3.07072172380945        0.42305614358025        0.00936909275003
H           -4.15424132785939        0.37738413095170        0.01191207702798
H           -3.25337485426467        2.49779891375125        0.00635717171958
H           -0.96195411292052        3.14644452823168       -0.00139423711873
H           -2.86614852591695       -2.84287440262345       -0.01864682566460
H           -4.27892934208656       -1.82951505555639       -0.03643575987373
