22
 energy: -37.043991473639 gnorm: 0.000638533864 xtb: 6.6.1 (8d0f1dd)
N            4.31923752674589        0.12768767577115       -0.25658007287974
C            2.98781266631842        0.10538459455858        0.02605094707602
N            2.30641889285279       -1.11004476797259       -0.15815136208317
C            1.09263659485604       -0.83582273077996        0.19033469401928
C            0.88395581744630        0.58946607146268        0.46511617882425
C            2.15949149114728        1.17121604429003        0.36547303346841
H            2.47016624268238        2.18176035012432        0.54449068814191
C           -0.48361849750611        0.38495937497153        0.24845394335619
C           -1.65168988074776        1.19778823964427       -0.03120851988846
N           -2.86980534586906        0.77088037910670       -0.10354817460889
C           -3.31855158402112       -0.51095260059984        0.00120672694957
C           -2.70281987057426       -1.72338362203553        0.01890355826034
C           -1.29836782108485       -2.02520092831043        0.01333275326566
C           -0.37720220970428       -1.05812423201662        0.14200005790713
H           -0.99958383318173       -3.05918096844062       -0.07030879867540
H           -3.35816696457229       -2.58455182593299        0.03178038954199
H           -4.40459862141594       -0.51837107028581        0.02141266021007
N           -1.43141534090851        2.52371630049617       -0.19855424300399
H           -2.20389755476432        3.11808928723665       -0.43936323013609
H           -0.49526454241045        2.88472419050398       -0.18865318983049
H            4.75839574772030       -0.77530896749126       -0.32416053710479
H            4.87012629469145        0.87339999669962        0.13311631869029
