25
 energy: -45.030534551718 gnorm: 0.000308438191 xtb: 6.6.1 (8d0f1dd)
N            1.85210513951925        3.17425231402662        0.05272224713981
C            1.77126166389937        2.02669318054979        0.02277328651511
C            1.63642049037205        0.62793715998524       -0.00591430764649
C            0.35817849908281        0.10142190602082       -0.02562293080184
C           -0.97863447863782        0.52974092990212       -0.02723986835182
C           -1.45798921429865       -0.86427538090841       -0.01217885705945
C           -2.85551615409947       -0.77149420054958        0.00711696243637
N           -3.23273699588712        0.53317768166597       -0.00089268021963
C           -2.13357687423828        1.32549524195032       -0.02153850428958
N           -2.23914835979302        2.66760585679067       -0.08271609885682
H           -3.14744970829954        3.07430398937123        0.05596357526547
H           -1.42059811553909        3.23184810895445        0.06251643890131
N           -3.77845512024583       -1.75295963056087        0.08156691599162
H           -4.73963145955569       -1.49457824869521       -0.05945243252592
H           -3.49537968240895       -2.69790284397721       -0.10709125323829
C           -0.12572240256769       -1.33239063492733       -0.01961150873178
N            0.47551668235876       -2.48517157225048       -0.02479108193608
C            1.80634390689655       -2.56146148916299       -0.02915204158790
C            2.80962410408094       -1.60723618268341       -0.01568731602638
C            2.79282916272642       -0.19781685357475       -0.00074504048802
N            3.99603697067161        0.43191324386687        0.00742131559450
H            4.04085754301316        1.43524284965908        0.04927294312097
H            4.84837637680973       -0.09652090730349        0.04859696048263
H            3.81269532959031       -2.02167016678662       -0.01556364621338
H            2.14897094271935       -3.59214754765957       -0.04104263657206
