20
 energy: -34.406582239114 gnorm: 0.000165006702 xtb: 6.6.1 (8d0f1dd)
N           -4.38051260330445       -1.54881722114098        0.00128966997787
C           -3.40560097684731       -0.94568676002876        0.00066327408378
C           -2.19341511663084       -0.20763518552939        0.00036184019119
C           -2.33281041990031        1.15916265576363        0.00010853889141
C           -1.35574298767287        2.19701588466676       -0.00043598219181
C            0.00368504001854        2.11638526140291       -0.00078033454614
C            0.71624260358333        0.89691448135831       -0.00060965374335
C            2.04780968107700        0.45756304705305       -0.00090123616583
C            1.63417072002625       -0.93701676674308       -0.00071048072834
C            2.77657061599885       -1.67134815970354       -0.00137113484448
C            3.82347024651672       -0.66186879770863       -0.00176350810557
N            3.39613276090123        0.58438879725396       -0.00154420751594
H            4.87892409974737       -0.86796149635372       -0.00230084999493
H            2.93958556239308       -2.73198539921066       -0.00158765958238
C            0.22916147221819       -0.48132220649730       -0.00028124995928
C           -1.00818577824347       -1.01661077229457        0.00015573302454
H           -1.14027324042104       -2.08944820889234        0.00034055791731
H            0.58698506383193        3.02687814856252       -0.00120137638711
H           -1.77939185378521        3.19405774565207       -0.00058941017624
H           -3.35684193320699        1.51521738218977        0.00030972585534
