21
 energy: -38.124417365198 gnorm: 0.000770265517 xtb: 6.6.1 (8d0f1dd)
N            4.55289526546147        1.58133809050654       -0.02318866010436
C            3.53996265953684        1.04185067829236       -0.01997059394104
C            2.29056522437734        0.38072374500476       -0.02156814217741
C            1.14106431060728        1.24857756163214       -0.03084943563434
C           -0.10092121545189        0.76584255118372       -0.15983838452251
C           -1.51848424925350        1.20895873115846       -0.14557475012723
C           -1.95098001570165       -0.12712499750936       -0.54682286434214
N           -3.28903419965218       -0.22185596654999       -0.35388912733112
C           -3.58193545309056        0.96098623529611        0.14336239016915
N           -2.53029482328421        1.83386082685268        0.37882498350388
H           -4.58370295541924        1.23897656185078        0.40903088361092
C           -0.64130012718186       -0.57303425395436       -0.31912125840119
C           -0.04577601643892       -1.83918427519223       -0.03582348371059
N           -0.88670823074176       -2.89621255104004        0.03489707580008
H           -1.87655678943345       -2.73992595956780       -0.05140742310209
H           -0.55039301956904       -3.81471255894329        0.26101828525167
C            1.32304578774366       -1.97516709026125        0.08428493080172
C            2.33672556344964       -0.99497126879279        0.03236459165449
H            3.33948167719500       -1.40661225763569        0.07371310344506
H            1.68018310051780       -2.98947764075741        0.21695212968024
H            1.31247026312989        2.30897169432592        0.08363427007599
