28
 energy: -48.196134058995 gnorm: 0.000448611602 xtb: 6.6.1 (8d0f1dd)
N           -0.78692831930804       -3.74301719198435        0.05968832617089
C           -0.98628614336483       -2.60832230475388        0.03466489958033
C           -1.19915018332632       -1.22337596750116        0.00770753038948
C           -0.09216472752723       -0.39224133056853       -0.00903519449835
C            1.31006071839071       -0.47841186164713       -0.00851729882770
C            1.42241465362425        0.99396089817280       -0.01387297649345
C            2.77820384341788        1.31908514912582       -0.00690612273737
N            3.35127739674283        2.56377401819000        0.05998238094705
H            2.76169018812058        3.33173675314570       -0.21672340124926
H            4.31197470221590        2.63201012716706       -0.23532510467964
C            3.47539869764301        0.08793152626151        0.00456960776790
C            2.59479725850570       -1.01928898176358        0.00343183143888
N            2.95058780127814       -2.33879269000525       -0.06355556295115
H            3.88095960910313       -2.58128026393724        0.23363206791855
H            2.23159780856493       -3.00970006438370        0.15449560094474
H            4.54871098363818        0.00420609383136        0.01259739316104
C            0.01614088421967        1.10311618926771       -0.01913292675785
N           -0.85226932128788        2.07589445488959       -0.02246546577405
C           -2.17118165444636        1.83545797111239       -0.02485572780874
C           -2.90244226738771        0.63577161914519       -0.01653356410736
C           -2.52809022240994       -0.70725079461918        0.00106052601601
N           -3.52987191229131       -1.63016217016121        0.05214956733332
H           -4.48246831245605       -1.34529462373053       -0.08579817741641
H           -3.30441208180589       -2.60471176948096       -0.05079384647018
H           -3.97789084535291        0.78792139853732       -0.02236769784871
N           -2.89513288572826        2.99060497329242       -0.08125731517564
H           -2.37897608671169        3.84357976209035        0.04645682633791
H           -3.87752444356150        2.98902277310740        0.12469222779036
