24
 energy: -46.098212014127 gnorm: 0.000976211881 xtb: 6.6.1 (8d0f1dd)
N            5.25413753716746        0.92105329793651       -0.00502438151709
C            4.20749455214905        0.44414894966186       -0.00065432847080
C            2.91388593652443       -0.10849674929186        0.00158171340840
C            2.87850841674812       -1.56647556507522        0.00989259335052
N            1.95517454621863       -2.44772024655333        0.01201553510272
C            0.59619071976931       -2.24880905076407        0.00684828423140
C           -0.00724001395347       -1.05569190972858        0.00222041296711
C           -1.38139075602819       -0.46594298011422       -0.00336599593307
C           -0.77165824109750        0.85902658933057       -0.00439454470464
N           -1.68498001150198        1.86238364052122       -0.01200606255034
C           -2.84410660433375        1.23394274910456       -0.01621821963949
C           -2.72031919192757       -0.26830417342480       -0.01189842017818
C           -3.82160641431423       -1.12245794546980       -0.01710836976962
N           -4.76614633597528       -1.77685949799657       -0.02343961952392
N           -4.02749663898876        1.85441032704770       -0.02250923942673
H           -4.88066521812608        1.32405767194762       -0.03144176434860
H           -4.05528693391059        2.85841402642375       -0.02896111572749
C            0.50819546406598        0.31609076614316       -0.00064687327419
C            1.85482613509077        0.79079665194235       -0.00261999831986
N            2.03053196580368        2.12535389156836       -0.00877957466060
H            2.95525396613728        2.52196413319975       -0.01071856179848
H            1.22388648948641        2.72604883301553       -0.01116911528059
H            0.02836458469478       -3.16959392253515        0.00766672792415
H            3.87795675250156       -1.99807118578939        0.01532674513935
