28
 energy: -53.007929499800 gnorm: 0.000611566993 xtb: 6.6.1 (8d0f1dd)
N           -0.50913085661361       -4.14244000698240        0.02456266975838
C           -0.75034182333108       -3.01720728377362        0.01406199786230
C           -1.03858714910119       -1.64328280750171        0.00467114421766
C            0.01258779642693       -0.74724522375926       -0.00704970773461
C            1.42030582732349       -0.74201251124752       -0.01280055001232
C            1.42014261382921        0.74233447105424        0.01326278951578
C            2.76760863703448        1.11219990643361        0.02392814507643
N            3.31592277364996        2.34381761955009        0.10947868455801
H            4.30667877717663        2.41782569939136       -0.04095374960904
H            2.73830723082778        3.14629134666157       -0.06979539395739
N            3.54618117001404        0.00040059136763        0.00036039231093
C            2.76785853535305       -1.11157128495726       -0.02331018535300
N            3.31645801257453       -2.34306453826981       -0.10879709072194
H            4.30720972153400       -2.41684931206753        0.04179020266703
H            2.73900079015051       -3.14566378059197        0.07042227288511
C            0.01242757867778        0.74725382508524        0.00733157873104
C           -1.03892114257162        1.64308058288335       -0.00438180811695
C           -0.75082362480278        3.01703439956106       -0.01303631481882
N           -0.51044779138263        4.14244185926775       -0.02496407040138
C           -2.40377480993958        1.21599174961636       -0.02218666431720
N           -2.92061199596555       -0.00029182764634        0.00005234624735
C           -2.40352276658421       -1.21646498137781        0.02234908019751
N           -3.34385171509402       -2.18955040527291        0.07027532899217
H           -3.08466825435786       -3.16038453122112        0.05605637065743
H           -4.31116196496802       -1.92108810264020        0.05728241963080
N           -3.34432606118996        2.18886864539002       -0.07006536581109
H           -3.08537391271328        3.15975818037013       -0.05575356835061
H           -4.31157214635701        1.92017610577710       -0.05706234090354
