24
 energy: -46.095891392536 gnorm: 0.000484744346 xtb: 6.6.1 (8d0f1dd)
N            5.35366009199876        1.46023684882595        0.02791458034376
C            4.32690264980850        0.94694483633573        0.01945748547506
C            3.05709465627474        0.32963200592435        0.00892786659031
C            3.06121154635178       -1.04533362541388       -0.00059830137289
N            2.09522740658479       -1.98695018086502       -0.03833879586340
C            0.80473581487380       -1.82439820187234       -0.02324355421175
C            0.11572831234489       -0.55500456571194        0.07034952356173
C           -1.20381343239746       -0.10776842495912        0.13961589160068
C           -0.74026008267697        1.27355749176029        0.05896600171330
N           -1.68573478855745        2.14227805530881       -0.07467936055384
C           -2.85698762425973        1.36755001927483       -0.03361736980190
C           -2.61577010933335       -0.02005904841526        0.07906214356266
C           -3.55487781534218       -1.04337454557550        0.11534634883054
N           -4.30622871786682       -1.91517087463962        0.13572404123289
N           -4.03704942016854        1.99228782738666       -0.11762741594570
H           -4.89546252491851        1.47087143482894       -0.11370111540317
H           -4.04612799488115        2.99128370862241       -0.21959786936996
C            0.67597682667397        0.79063883443066        0.04854390214268
C            1.93171112995494        1.24535296927842        0.01006794245367
H            2.14631709157095        2.30308674777735       -0.01108726368168
N            0.03358324745193       -2.92488062510050       -0.09149611016394
H            0.47907443672394       -3.82450166333840       -0.14723558864482
H           -0.96908280500289       -2.85981028779339       -0.05864263473989
H            4.04323437829192       -1.51153441726941        0.00899350984586
