21
 energy: -33.330943866504 gnorm: 0.000593508766 xtb: 6.6.1 (8d0f1dd)
N            3.15549770391858        1.71234646975312       -0.06353609568870
C            2.45609768638839        0.54601724719148       -0.01355536635956
C            1.08140533822715        0.34084535275708       -0.01634314101671
C            0.83212917478420       -1.09504689457554       -0.01427594786152
C            2.06369185543863       -1.75595152129597       -0.01436744134681
C            3.03822961498999       -0.76381387013676       -0.01552978127134
H            4.09966174858001       -0.93895125294052       -0.01665481462423
H            2.25200346634701       -2.81440669618202       -0.01412632590139
C           -0.56511421963513       -0.86611809494375       -0.00548265997990
C           -1.76638129735286       -1.55995314391545        0.01369922121635
C           -2.99914715828922       -0.92863653247933        0.02431553451862
N           -3.35925379958015        0.35422990651382        0.00702894373661
C           -2.60941613843484        1.43239814467239       -0.01511628311389
C           -1.22088930993838        1.63144208986332       -0.01805295571961
C           -0.32614541559700        0.59068960114468       -0.01270892341496
H           -0.85655644138129        2.65037114859384       -0.03018879577681
H           -3.21152037757852        2.33998328606914       -0.03080363434237
H           -3.87095361940424       -1.57977686038700        0.04744667630207
H           -1.74371692015322       -2.64164958000647        0.02338076922622
H            4.13819805067317        1.68395928537313        0.14988860743985
H            2.67098124979772        2.56757090283081        0.14793514237810
