22
 energy: -37.856125555737 gnorm: 0.000604653089 xtb: 6.6.1 (8d0f1dd)
N            4.68825210947056        1.75326968126134        0.00058960874209
C            3.75200880115874        1.08998179646832        0.00136870571617
C            2.58805262076972        0.28236122033289        0.00089161200769
C            1.34650303575609        1.03218789571662        0.00701299142625
C            0.15255224998816        0.42662475041255        0.00748449494161
C           -1.28135467929842        0.80048327480216        0.00930787633139
C           -1.61066975648690       -0.62429548190844        0.00833876058451
N           -2.94632441201047       -0.84147579826695       -0.00095618499079
C           -3.45667708432069        0.38244780428975       -0.00476595847480
C           -2.45165881152147        1.46725096233953       -0.00115607741094
H           -2.68674142990144        2.51442996526734       -0.00555915088979
N           -4.78561861434500        0.60213537008201        0.03142729979290
H           -5.14486626947010        1.51749976044696       -0.17156109513728
H           -5.39149444889386       -0.19088299057898       -0.08796024302201
C           -0.26564906962223       -0.98110003776423        0.00386565607815
C            0.52225690625475       -2.16361335529107       -0.00602685372312
C            1.87588102861064       -2.16932399220482       -0.01004653174223
C            2.79885809685995       -1.06552770819588       -0.00674894499057
H            3.83980811383142       -1.37007917336937       -0.01127326466727
H            2.36134455594708       -3.13747198702951       -0.01721088364699
H           -0.01228322897292       -3.10399078970329       -0.01021343670345
H            1.42455106519634        2.11000263509293        0.01067995347852
