27
 energy: -49.280045613927 gnorm: 0.000727432672 xtb: 6.6.1 (8d0f1dd)
N           -5.25209087817299       -0.62561079335115        0.01654412670621
C           -4.12478894090512       -0.38629450251463        0.00652752892535
C           -2.76540382832385       -0.09337844679048       -0.00627068833801
C           -2.22830463728219        1.23867616518475       -0.00707296745492
C           -0.84408992064473        1.08394233865554       -0.02209177831102
C           -0.53308650938239       -0.35645476493332       -0.02625377382607
C           -1.72566380014913       -1.07985515680292       -0.01849402574858
N           -1.90777037822722       -2.41550489836819       -0.05547711492736
H           -1.11538192514675       -3.02803711145993        0.02676474388575
H           -2.83288712091037       -2.79591169338997        0.04321955821955
C            0.84487040873357       -0.08625398226609       -0.02539941723783
C            2.05256779044058       -0.76290021993713       -0.00700262929455
C            2.01131280810109       -2.16725336178364        0.01529220022136
N            1.93452899022189       -3.31521787929776        0.03927243152300
C            3.29925587999671       -0.08227571211895       -0.00033515186468
C            3.48325024484129        1.31657268140403       -0.01400873405946
C            2.59968024911835        2.38212115970349       -0.03107409103023
N            1.26995775218931        2.46395901344718       -0.03213924636396
C            0.53542764860564        1.38933897711377       -0.02648602884188
H            3.06186705291979        3.36505427918250       -0.04260295171377
H            4.52807753638928        1.60932709463806       -0.01022016044591
N            4.41685416775146       -0.84897222559277        0.01533181713004
H            5.32708064001683       -0.42609091776787        0.04009061437898
H            4.34445999418682       -1.85159197760936        0.03899596490398
N           -2.96098942796239        2.37102899286227        0.04339812670935
H           -2.50199915376137        3.25584335211439       -0.07700790897946
H           -3.95975202474422        2.32048060867805       -0.05876849116583
