19
 energy: -33.876490344959 gnorm: 0.000739657256 xtb: 6.6.1 (8d0f1dd)
N           -0.95259050149266       -2.42821202515042       -0.39534957892780
C           -1.20338347178825       -1.16482230854567       -0.00952651921444
N           -2.41786414786013       -0.71965265793346       -0.03031441567485
C           -2.83739300887341        0.54648826677572        0.20735770566027
N           -2.29445429344744        1.70080606080116        0.05514261470902
C           -0.97345100938421        1.95497517106819       -0.15057858084727
C           -0.00214070054348        1.07011376060148        0.14312143233238
C            1.45936704583125        0.83719411470464        0.15001795471543
C            1.28074417445475       -0.52645126821726        0.69710282453833
C            2.51379273697369       -1.18066301314493        0.46227062548162
C            3.26477523793656       -0.24080365747922       -0.20441572622541
N            2.57731874265239        0.93023895744234       -0.49104689781328
H            4.27212832567863       -0.34031754210145       -0.56409236029867
H            2.83274957974027       -2.15201493137741        0.78656856808516
C           -0.07592682910167       -0.35217015486852        0.43099584286838
H           -0.75124363607694        2.96360524181774       -0.47051439157114
H           -3.89292192256190        0.57337811984391        0.46642870696041
H           -1.70499102751668       -2.98934058940829       -0.75516122742955
H           -0.02155246342079       -2.80096821702861       -0.34725207754859
