23
 energy: -41.575449084056 gnorm: 0.000581708322 xtb: 6.6.1 (8d0f1dd)
N            4.55405965940519        1.50748972715366        0.02048326713041
C            3.59436211455989        0.87267556447178        0.00964997419849
C            2.41056522698111        0.11502273713636       -0.00155642477956
C            1.21638498702383        0.82224043236583       -0.00231604410974
C           -0.03496692412100        0.13146612086728       -0.00849856571362
C           -1.38167636979754        0.45600683601372       -0.00472352403769
C           -1.77023062006778       -0.95920366720435        0.00402131340985
C           -3.11031285037004       -0.98506981903101        0.03143925995116
C           -3.48165049638456        0.45564585189163        0.03189798411164
N           -2.45181496786275        1.28832900899023        0.01224698508139
N           -4.75309254563791        0.88595281350374        0.02261643464209
H           -5.50751012293430        0.24045174670716        0.16877859720675
H           -4.92645537178087        1.87243662148694        0.10109597864876
H           -3.81883504432268       -1.79077496590568        0.04955640189217
C           -0.31710257896086       -1.30800325329234       -0.00493166576028
C            0.47950446035765       -2.38138447896979       -0.00628473794174
N            1.85439667318292       -2.35220668901612       -0.01753150026040
C            2.61738914081528       -1.32976729028675       -0.01540590193849
H            3.67530802040572       -1.58863249996081       -0.02583044810849
H            0.07594231564000       -3.38547360097396       -0.00158826714826
N            1.16537465894053        2.16812669443636        0.00468935017389
H            2.00941531049190        2.71553239570803        0.00820267179549
H            0.26768825673634        2.62143316000813       -0.00012403554375
