21
 energy: -38.152774784244 gnorm: 0.000230128411 xtb: 6.6.1 (8d0f1dd)
N           -0.44686743307521       -3.87764495979346        0.00270770668690
C           -0.00732870423731       -2.81718385916747        0.00119368193521
C            0.52882206121976       -1.51422078922481       -0.00072330129558
C           -0.32047579034201       -0.40376691263235       -0.00186238731353
C           -1.69513064781253       -0.06678779787449       -0.00164773219959
C           -1.35519779310628        1.36571663466560       -0.00323262827382
C           -2.52615038725498        2.08749719351784       -0.00324481269262
C           -3.56772935873266        1.12707675020415       -0.00173958119669
C           -3.07596858252284       -0.18661185892880       -0.00076727728444
H           -3.66853085298237       -1.08219190599785        0.00042315254262
H           -4.61382395915802        1.37952433908333       -0.00140841659706
H           -2.66289268235459        3.15281020951419       -0.00417075402126
C            0.03469917306700        1.02525694947446       -0.00344448382282
N            1.15972686523425        1.68180058618627       -0.00462948795982
C            2.33584349958162        1.02645527349324       -0.00455839090681
N            3.39735806128557        1.84024741127952       -0.00659891016289
H            4.32060719986878        1.44197685467413       -0.00664056955031
H            3.25228659739744        2.83521061768239       -0.00797060065057
N            2.67490653272504       -0.27154791774747       -0.00270806124589
C            1.92255220371331       -1.34598679130445       -0.00096998319702
H            2.51230257368601       -2.26105670170398        0.00044551660595
