22
 energy: -38.662191805397 gnorm: 0.000727429543 xtb: 6.6.1 (8d0f1dd)
N           -5.36717075225063       -0.17657676503329        0.00122350229286
C           -4.22539207205063       -0.04548221500439        0.00094292996865
C           -2.83644303544572        0.11986899824587        0.00082595768664
C           -2.18087267144320        1.37566263941008        0.00012444436157
C           -0.82845738346606        1.08357943959825       -0.00003657451772
C           -0.66196314470642       -0.36561819738295        0.00047636353286
C           -1.89629784375460       -0.96239505880012        0.00111664365014
H           -2.15709123601364       -2.00424829923868        0.00163669373488
C            0.77135216009774       -0.19130839035286        0.00015079049191
C            1.91692501109184       -0.97139686597841        0.00027442462548
C            1.78019703144795       -2.37695823920882        0.00073561151576
N            1.67444331187949       -3.51934150578211        0.00105699648080
C            3.22066079814188       -0.42929595048277       -0.00019009536333
C            3.62675490326378        0.88776571159751       -0.00082115510331
C            2.88561811863935        2.08541329746386       -0.00115403322026
C            1.52231285826223        2.28521107325928       -0.00097647196128
C            0.59318337073173        1.24810060076240       -0.00041835534167
H            1.14621011539498        3.29901621564634       -0.00125178499300
H            3.49087754913387        2.98416088478732       -0.00159617173520
H            4.70005920701540        1.03035591229260       -0.00104763857669
H            4.01369161629985       -1.16879130431951        0.00000977543395
H           -2.67538350306921        2.32930485762038       -0.00023440606306
