19
 energy: -33.875046946652 gnorm: 0.000540994757 xtb: 6.6.1 (8d0f1dd)
N            3.92740176320289        0.11434026203377       -0.22699340707560
C            2.60625443755311       -0.03884761894862        0.03294627828580
N            2.02390845990694        1.18744032547620        0.32248516121863
C            0.79013313150387        1.50017264504995        0.22831012626960
C           -0.25324129704360        0.61756649166223       -0.20353394169191
C           -1.62959890233243        0.61755180291407       -0.41878570300277
C           -1.67911141343605       -0.83072842048248       -0.21110716618978
C           -2.96442901849640       -1.10807272253155        0.09580991451767
C           -3.65368860297809        0.17202780692611       -0.09537852283610
N           -2.86796721451736        1.17856600962693       -0.38070505792158
H           -4.71412321816005        0.32200371765638        0.00463251941507
H           -3.43440459091639       -2.01950831591425        0.41309809886045
C           -0.18871050346046       -0.84044093959425       -0.12566610782972
C            0.86076108962315       -1.65643480102278        0.08467312342910
N            2.15904933969384       -1.25440235482057        0.06291982297007
H            0.73755487909056       -2.72293765408542        0.21742693199517
H            0.52629417445525        2.50837777318181        0.53637370125456
H            4.49669779423789       -0.70992040053582       -0.29697673787530
H            4.35111264777328        1.00610087110828       -0.04391647049336
