26
 energy: -49.538081352179 gnorm: 0.000705853195 xtb: 6.6.1 (8d0f1dd)
N           -4.31060120310238       -2.61248522533137        0.09271576576483
C           -3.78027624254668       -1.59345973538652        0.04388310426751
C           -3.10327804106805       -0.37629350742550       -0.00892816725643
C           -1.76441123597151       -0.11218888160213       -0.06462100812549
C           -1.63507674826486        1.31386237260371       -0.06825283924094
N           -2.83842631370791        1.94650386620609       -0.03139465704536
C           -3.71151537784209        0.97135873752374       -0.00127639323352
H           -4.76709062269750        1.16461496732538        0.02813718478369
C           -0.21713658505024        1.21414471967026       -0.04869570466918
C            0.91316136222279        2.09474822783263        0.00129825672768
N            2.16231645574079        1.71903249422826        0.00982973312358
C            2.69635083562352        0.48252825876649       -0.00901372328190
N            4.05108004483235        0.55348108719496       -0.01472031838816
H            4.47120727570358        1.46395625456414        0.02698239229519
H            4.62139210819369       -0.27311288160495        0.00519358829004
C            2.11538479184978       -0.80203286667110       -0.01796163893125
C            3.01599179234876       -1.87854760475101        0.01479543447629
N            3.74715778329753       -2.76743997755544        0.05691808227258
C            0.72186483355585       -1.16786525515270       -0.04745160383886
C           -0.24853644729816       -0.20713552982157       -0.06180174050881
N            0.38564478863359       -2.48977471104161       -0.11178555672730
H            1.08328959044344       -3.18867126861915        0.07629847161458
H           -0.57913477066956       -2.73986277832034        0.02017325002897
N            0.65029610268959        3.41150475507196        0.04311161472775
H            1.40714541407022        4.07183752107221        0.07423971170368
H           -0.30464211358679        3.72689784012376        0.02795113237151
