24
 energy: -45.317184980702 gnorm: 0.000588538896 xtb: 6.6.1 (8d0f1dd)
N           -4.79783727527587       -0.35965844799830       -0.00731983919396
C           -3.65223839247214       -0.23593730621079       -0.00343191760216
C           -2.25435303084416       -0.08533224799068        0.00041538604272
C           -1.80463653714359        1.26635404122392        0.00432095158701
N           -0.55543766000356        1.76073361055676        0.00881860028322
C            0.47117783072868        0.96391640017636        0.01149534706435
C            1.88430714356181        1.10285140415405        0.00786850427063
C            2.03252569539265       -0.37180183481557        0.00306057907870
C            3.41213419484853       -0.59810545674173       -0.02116161121035
N            4.05991007916941        0.59398665609859       -0.03372980632858
C            3.16916409141282        1.60615683135369       -0.01607363928946
H            3.52286763921692        2.62034052569399       -0.02477566775693
N            4.10405310183924       -1.76334783405292        0.02396030022760
H            5.08857885740121       -1.70064060471256       -0.17429914213758
H            3.62659800018968       -2.60980392771770       -0.23243948662152
C            0.63286189788960       -0.53022744719226        0.00609458397658
N           -0.20495896784372       -1.53309571939956       -0.00292579768987
C           -1.52452451060401       -1.31505641670825       -0.00102025013866
N           -2.23844594564100       -2.45774694677518       -0.00508388757707
H           -3.24364885548647       -2.45436995074810        0.00245101658466
H           -1.72848724745963       -3.32340645737047        0.00086785584569
N           -2.73681996818095        2.23807397377934        0.00244689467296
H           -3.72044531472143        2.03027799128834       -0.00045356175865
H           -2.41204986447397        3.18914161250895        0.00687795627070
