23
 energy: -37.589180716831 gnorm: 0.000716150369 xtb: 6.6.1 (8d0f1dd)
N           -1.32455769411675       -3.23088852087511       -0.00243329747443
C           -1.19436087779847       -2.08765309932478       -0.00145362483231
C           -1.08718263903385       -0.68551022543804       -0.00094495167126
C            0.17875784250063       -0.11929407603151       -0.00076422138289
C            1.53617822653289       -0.56647638139435       -0.00109186817912
C            1.99331971218739        0.82084940126128       -0.00040773364812
C            3.37372199083088        0.82303031990825       -0.00051732671986
C            3.75813955455684       -0.53474119673605       -0.00128191914002
C            2.64285069832479       -1.39504934972949       -0.00165558860540
H            2.67739903761240       -2.46890522473183       -0.00224166678602
H            4.78013487415148       -0.87130237980604       -0.00153805962038
H            4.04764980660457        1.66040832132813       -0.00010613252307
C            0.62835233746422        1.26754511547139       -0.00005396228356
C           -0.08174810938951        2.44699832762471        0.00062733316065
C           -1.47312391702980        2.49515022560722        0.00074789142476
C           -2.41440876179655        1.48019987541308        0.00027265896176
C           -2.29326752534429        0.07650237488552       -0.00046541134692
N           -3.44513569844308       -0.62756522232875       -0.00075119062640
H           -4.33371819569636       -0.15913586469061       -0.00040429472153
H           -3.42288541152396       -1.63398520427570       -0.00121670036103
H           -3.44550121947611        1.81688751950154        0.00052047937839
H           -1.89687243717166        3.49290184319893        0.00131666549539
H            0.46335817815425        3.38009396036222        0.00109208450134
