20
 energy: -33.618005294181 gnorm: 0.000575202949 xtb: 6.6.1 (8d0f1dd)
N            3.29051603350353        1.61150449969347       -0.00012664850218
C            2.31797474002082        0.68060515782632       -0.00010047208643
N            1.09282814880573        1.22428264863568       -0.00006494325570
C            0.01467193127336        0.49149628684061       -0.00002308131769
C           -1.38923092484122        0.76422325766309        0.00001596617388
C           -1.66837656764933       -0.67211630399346        0.00004974047659
C           -3.04406513247392       -0.78493427833104        0.00008483966176
N           -3.59682286540303        0.44948977289020        0.00004505989619
C           -2.62866858599132        1.38441171814644        0.00003612491499
H           -2.89015055059484        2.42627942592272        0.00000689460738
H           -3.67797187985278       -1.65251555368196        0.00010293451355
C           -0.25854473319319       -0.95797051299048        0.00000350140426
C            0.60195114365006       -2.02396516682085       -0.00002972610014
C            1.99057936987713       -1.84538522029495       -0.00008766743131
C            2.72791600295851       -0.68033339064875       -0.00011784315185
H            3.80444003640669       -0.80647679844358       -0.00016334039756
H            2.57661034592771       -2.75729029458917       -0.00011454359928
H            0.20972658923467       -3.03128148352288       -0.00001317587792
H            4.26434904071118        1.36754429826874       -0.00017476211367
H            3.01213214983022        2.57788283982985       -0.00012531501488
