25
 energy: -45.838717170263 gnorm: 0.000658358595 xtb: 6.6.1 (8d0f1dd)
N            5.47988291001354        0.03525856238050        0.05034912624823
C            4.34378411009659        0.21779703209215        0.02762902735320
C            2.96095519344839        0.39379516135546        0.00743934395887
C            2.03049064443439       -0.71509903602200       -0.00638294815890
C            0.77818781408575       -0.12151027446976       -0.01119993278907
C            0.93856346447583        1.33922902687001       -0.00241594268906
C            2.28633758106028        1.63827895816038        0.00954060628749
H            2.77338112436980        2.59612681432342        0.02082236480241
C           -0.47833314773991        1.49645347560879       -0.00416557697686
C           -1.44425600575802        2.47857651739940       -0.00240737263058
C           -2.80644907775107        2.18858577081479       -0.00349034265429
N           -3.48378256956420        1.05670659321551        0.00015938246138
C           -3.08624898860723       -0.20854540585602        0.00448331064505
C           -1.76215090206545       -0.76485275530662        0.00004808237757
C           -1.59916420461936       -2.15936140840379        0.01102087103132
N           -1.44961540371647       -3.30008068415281        0.02517413384780
C           -0.63279198094576        0.02805615512409       -0.00831199160143
N           -4.11271556872749       -1.08178445764812        0.01364578681013
H           -5.04722714311873       -0.71102169580656        0.01646752649727
H           -3.95732855562178       -2.07547772076405        0.01673462793470
H           -3.47587067018313        3.04613759201282       -0.00593351962194
H           -1.14282250463698        3.51639218624948       -0.00125599395692
N            2.37221867179650       -2.01963135194635       -0.04705073732670
H            3.33653551134884       -2.28369264195831        0.05675585448669
H            1.66167000892572       -2.72462647097244        0.04144325036373
