21
 energy: -33.325580662601 gnorm: 0.000642455041 xtb: 6.6.1 (8d0f1dd)
N           -1.01242146014346       -2.63119980834296       -0.05928884289243
C           -1.24011982501949       -1.28904885984323       -0.01800789035898
C           -0.09400987024426       -0.43760778845909       -0.02847958366734
C            1.30022501941088       -0.56787610377002       -0.03164625139415
C            1.45128236268756        0.88151404878775       -0.00339364245093
C            2.76878199029884        1.18804158508256        0.02275899567271
C            3.47010128219954       -0.08296591538432        0.00360485229321
C            2.59406549333375       -1.14181476827583       -0.02743604657246
H            2.85824441093315       -2.18388636275547       -0.04890138355860
H            4.54254460190402       -0.16400618888302        0.01408555079695
H            3.25319770296661        2.14720242614652        0.05237216103105
C           -0.02736108375752        1.01290922857722       -0.00710073077127
C           -0.99090863845668        1.96195372884134        0.00598083729534
N           -2.32760762245473        1.73993590633649       -0.00519713164356
C           -2.93378842728720        0.59925979335545       -0.01315831690126
C           -2.51189399963882       -0.76520453286995       -0.00748643200572
H           -3.32333416221554       -1.48415732207658        0.00107022705413
H           -4.01664493200190        0.71153486746157       -0.01969336389562
H           -0.72692389135013        3.01268476144618        0.02371654398976
H           -0.07465092717895       -2.96050079916309        0.08694016353736
H           -1.76966148518574       -3.27307339961153        0.09489144724175
