23
 energy: -41.570439887189 gnorm: 0.000866109234 xtb: 6.6.1 (8d0f1dd)
N            3.87066607246042        2.19057566747662        0.24296688394434
C            3.06904526063003        1.37341997486174        0.14296788972140
C            2.13470266937356        0.34454075783729        0.00430859168992
C            0.78350418770441        0.37090125027314       -0.09105961019694
C            0.28783408059543       -1.00133538451579       -0.19907840855903
C            1.38840369993627       -1.88433001999284       -0.20799301333074
C            2.51360632105996       -1.09252167913819       -0.09309857795563
N            3.80934291580313       -1.48613272059529        0.00284312134080
H            4.04825875544455       -2.43165844086538       -0.23950750853569
H            4.53018376728209       -0.78979041877865       -0.08342198921534
H            1.38390222072507       -2.95465959442177       -0.29024074295662
C           -1.02748840686458       -0.53933327858918       -0.15150471277834
C           -2.37223217651619       -1.04917549978091        0.02399509317330
N           -3.44210239062479       -0.31874097489696        0.03744304316037
C           -3.52751371604192        1.03595015897076       -0.12389040154553
N           -2.71727563912784        2.02461396622880       -0.06161976137230
C           -1.35227035873364        1.98270969659105        0.05913138497902
C           -0.62412289278590        0.86186972616353       -0.05965400893135
H           -0.89208936335841        2.95445143610216        0.17814575300205
H           -4.56372716006937        1.32656623891450       -0.28920947628158
N           -2.50217544299415       -2.37865589632209        0.20487335021386
H           -1.69353460743904       -2.97248242504951        0.22315155993542
H           -3.41464144175923       -2.75576899337264        0.39209381619842
