27
 energy: -44.473023452074 gnorm: 0.000826959890 xtb: 6.6.1 (8d0f1dd)
N           -0.57055179117942       -3.49833814890855        0.04936527935791
C           -0.02544652898107       -2.48392607550527        0.00907653952726
C            0.61423518719686       -1.23636790774898       -0.01469451766308
C           -0.19203339975162       -0.11213759338702       -0.02085951585208
C           -1.57490756857204        0.18657234912822       -0.02066838202861
C           -1.27495134687344        1.62097517662669        0.01840353229161
C           -2.47173434314847        2.30822509066871        0.06229456218557
C           -3.48838020193687        1.33442546440190        0.04480226864631
C           -2.95740175557933        0.02029520462393       -0.00694500765383
N           -3.67155886363182       -1.14428260694356       -0.11028424925330
H           -3.17216731311756       -1.99743429866155        0.08408531527395
H           -4.63199826651324       -1.12132172473518        0.18947214302881
H           -4.54180430035629        1.55338822388096        0.06965954516033
H           -2.63788124774966        3.37009290191310        0.10465881064733
C            0.12533542661932        1.32599286769254        0.00964686741679
C            1.32529765345672        1.98050390241402        0.02157719413045
C            2.57347109356304        1.33214408987146        0.00792477458198
C            2.84641853748500       -0.04578872832669       -0.00479338605224
C            2.04140750624560       -1.18074074307867       -0.00979529998461
N            2.67568769993734       -2.38542834470563       -0.04693810541652
H            3.67068604192556       -2.43809752355160        0.07591364900079
H            2.13752714088271       -3.22972707138454        0.04720006333643
H            3.90866741147714       -0.27456205912373       -0.00691070862672
N            3.66772008789186        2.14949900464640        0.05629929352745
H            3.54366011923082        3.13617380330522       -0.08446252041196
H            4.58268396413807        1.77078257543397       -0.11146954449937
H            1.32655110794079        3.06258005115382        0.04156705342936
