23
 energy: -41.580506128959 gnorm: 0.000896812501 xtb: 6.6.1 (8d0f1dd)
N           -1.86881462921186       -3.32169275049086       -0.01290225358140
C           -1.88415222371903       -2.17313215063656       -0.00958264905287
C           -1.84232819143775       -0.76458982935978       -0.00492617899407
C           -0.59710020366960       -0.15894183921982       -0.00487041601075
C            0.77018793825835       -0.49143827473426       -0.00489976253683
C            1.13596231246028        0.92739626072305        0.01066579730490
C            2.54250375233107        0.94359675271219        0.01773347548189
N            3.02067640582914       -0.32520240895268        0.00828974897350
C            1.98489175925640       -1.20093464157466       -0.00432239097366
N            2.18874001662185       -2.52376579571080       -0.03326078441469
H            1.41122748902036       -3.15821648376847        0.01022604317722
H            3.12981293478374       -2.87144488052748        0.01815522321797
N            3.38703617232806        1.98819229412194        0.06518947341206
H            3.04467821450081        2.92187317734115       -0.06851495392568
H            4.37034909521045        1.80216133148715       -0.02565777232562
C           -0.23337342043490        1.29446642562317        0.00941393586793
C           -1.05573831887283        2.39372028053372        0.00896330077940
C           -2.44937631422204        2.29503735406525       -0.00496218347775
N           -3.27908689570836        1.26438052717344        0.00253495699024
C           -3.04567745308720       -0.02680228324327        0.00936828632339
H           -3.95938644894168       -0.61746181756702        0.02532974454710
H           -2.99057585796428        3.23885514244001       -0.02002479063817
H           -0.61959972283095        3.38452367226459        0.01440290555591
