22
 energy: -42.643492638064 gnorm: 0.000750195278 xtb: 6.6.1 (8d0f1dd)
N            5.05881281553364        0.54600308725494       -0.00237909456316
C            3.97110463028031        0.17681175797095       -0.00259640480416
C            2.62594994551058       -0.24689519397663       -0.00040483175503
C            1.65984585317260        0.75878568969038       -0.00017890610481
C            0.27652005086523        0.41469390541599        0.00140296891899
C           -0.95004789520771        1.08955508352543        0.00189411943840
C           -1.68662481213538       -0.15847707412647        0.00143821972880
C           -3.00436259739733        0.18391896409728       -0.00064140824679
C           -4.16574802931093       -0.59314087314767       -0.00228222616795
N           -5.12435343116604       -1.22483571527720       -0.00481397230662
C           -2.97116173837857        1.66574914422241       -0.00018731601235
N           -1.76951665722905        2.17592319866999        0.00092338701616
H           -3.84329175372479        2.29308407144720       -0.00108629636798
C           -0.37515009998334       -0.88449101585335        0.00134905892458
C            0.11346302589090       -2.13866181540979        0.00112671961439
N            1.43314360332204       -2.46741622280865        0.00152110241979
C            2.44904908326821       -1.68343837482456        0.00096738325606
H            3.39635297183870       -2.21927893424825        0.00137559530168
H           -0.54696801859295       -2.99594041454503        0.00094958038191
N            1.96749783642060        2.06734587156658       -0.00139564518343
H            1.22510482634786        2.74691330264205       -0.00101153481866
H            2.92634926817533        2.37322892381444       -0.00258652396980
