27
 energy: -49.252452445827 gnorm: 0.000885436273 xtb: 6.6.1 (8d0f1dd)
N            4.99256033011251        1.47480524368865        0.17113469318032
C            4.22482740286663        0.61799154560736        0.14217632485768
C            3.21713633467499       -0.34107859062019        0.09397505162006
C            1.83383738112578       -0.13161952081046        0.36525154618580
C            1.23282693526492       -1.42655033762171        0.18784012707132
N            2.07469326914986       -2.33790809025431       -0.21264414663576
C            3.29950652288496       -1.70405615087862       -0.19739371643289
H            4.18598686053237       -2.26801449541586       -0.41761993758929
C           -0.13580953374476       -0.78893094493266        0.19309251408705
C           -1.44311279765150       -1.16717151398453        0.11191878329145
N           -1.76252009541533       -2.49711410721846        0.11636459576988
H           -1.00564120680895       -3.14586624180453       -0.01731914450493
H           -2.68353580891474       -2.78589506186311       -0.16472721966648
C           -2.50361463725487       -0.19326117518662        0.07019774232999
C           -3.79832036095435       -0.74160838230978        0.04683582772090
N           -4.85380726631803       -1.20105841779865        0.00940248254125
C           -2.42639651500449        1.20746418695899        0.01043015568207
N           -3.61365482534207        1.88022644705600        0.01444101241105
H           -3.63630041192428        2.87012195890390       -0.14540669402732
H           -4.47958329209051        1.37130681655015       -0.02462823982472
C           -1.28587265241534        2.05369209626286       -0.06039900309010
C            0.06091993795121        1.77912703477053        0.00600455085128
C            0.54659327660292        0.45672710643010        0.22086959405790
N            0.99211873937536        2.75459769779256       -0.10788275011099
H            0.73012821715966        3.71591219505597       -0.22853102055657
H            1.96660573584079        2.52711651122656       -0.00964236674309
H           -1.53277063310466        3.10447934559582       -0.17170111847618
