28
 energy: -48.995277705769 gnorm: 0.000674104466 xtb: 6.6.1 (8d0f1dd)
N           -5.16843042892678       -1.13916663036207        0.02256553796082
C           -4.02957978588762       -0.97666190652986        0.00970146907103
C           -2.63169504026468       -0.78032446065111       -0.00315154329452
C           -2.22419033782634        0.58250044332107       -0.00536997144308
N           -3.19995678992079        1.52316768198180        0.00421670676841
H           -4.16871999065027        1.25406373927596        0.01834311374491
H           -2.95753566939334        2.49889737693050        0.00743494358832
C           -0.88738640662913        1.05379292560997       -0.01534403877722
C           -0.64027659271014        2.43763592558228        0.00401261726087
N           -0.38947986528799        3.56076898417363        0.02836736403120
C            0.23459656028043        0.23851962960753       -0.03017464515022
C            1.63164971102660        0.39551746558328       -0.03278633852899
C            1.80733500754557       -1.06621566327496       -0.02339305211644
C            3.18207238948369       -1.33013098378838        0.00171371060833
N            3.80727832491650       -2.54126973053187        0.08253837665370
H            4.78979724124853       -2.56990523033028       -0.13311610163666
H            3.27529403093618       -3.35494776833261       -0.17495618996969
C            3.82295040979397       -0.07091294406698        0.00919973033529
C            2.89090398445769        0.99791962020860       -0.01057604922664
N            3.18069979925368        2.32236237798815       -0.06870838971678
H            4.11034159527737        2.62709666443339        0.16222583117428
H            2.42992662503876        2.97698434493088        0.07544102720764
H            4.89048589999023        0.06082531695258        0.03035166900521
C            0.40503837069713       -1.23953797572677       -0.02299979715163
C           -0.54844098956390       -2.23607145874526       -0.01128827971727
C           -1.90851256187174       -1.98561116876643       -0.00566846686415
H           -2.54532588152811       -2.86409920617798        0.00095940692279
H           -0.22413244058522       -3.26798331829494       -0.00507461814006
