25
 energy: -45.013086394274 gnorm: 0.000572147275 xtb: 6.6.1 (8d0f1dd)
N            4.12576844430331        1.72309102680372        0.01409483255747
C            3.13427058024676        1.13507362483715        0.01649574261286
C            1.92245584383591        0.42928863385623        0.01242621881432
C            2.03029791735895       -0.96971865363383       -0.02021359416697
N            1.10658355512197       -1.95218400449021        0.06738546929001
C           -0.19149721494485       -1.87573404448163        0.01942169529862
C           -0.94699090488927       -0.66950723359723       -0.18021795369197
C           -2.29495965898079       -0.30376134133016       -0.31304251904358
C           -1.95707031386093        1.09938447964158       -0.15496322854417
C           -3.12129362828410        1.73861054517691        0.07829157743054
C           -4.13083106194385        0.67941972577943       -0.05053656796845
N           -3.63867725876318       -0.51788293895293       -0.26014994008710
H           -5.19304657744083        0.82783116014051        0.02620493883742
H           -3.33837400585652        2.76445950386032        0.31212507085929
C           -0.49940239922329        0.69116657044210       -0.11101281052990
C            0.72963635689591        1.25006164465168        0.02365267400744
N            0.87255162559304        2.60619401564111        0.21604112685435
H            1.77600830729387        3.01053505201804        0.02968814143577
H            0.07607461431285        3.17113281457077       -0.02853417096319
N           -0.90158464282181       -3.00805927814586        0.16176162742998
H           -0.42873668231003       -3.88217643654198        0.30860849008042
H           -1.90482843990895       -2.96985969289995        0.10359834387593
N            3.27595889356056       -1.50474465599525       -0.13860273236275
H            3.35985005927079       -2.50004497646032       -0.03794185847828
H            4.09403599973460       -0.92439263819014       -0.07820475984790
