25
 energy: -45.050238011771 gnorm: 0.000906659183 xtb: 6.6.1 (8d0f1dd)
N            5.52795047583344        0.50863440935107       -0.00654419960710
C            4.37689751295961        0.47996214912039        0.01534238007426
C            2.98601862858681        0.39333464889450        0.02137782949271
C            2.28581299089061       -0.86549757540575       -0.02953548755323
C            0.94439590027391       -0.53038093528941       -0.02687712377082
C            0.82516509737331        0.93312064830179        0.02143360194438
C            2.08693724361849        1.48784138313080        0.05457026258069
H            2.37928698697047        2.52069078799881        0.09445633215083
C           -0.59189050841934        0.82118221656589        0.00834860235917
N           -1.60102096292800        1.64299462275977        0.01623101858423
C           -2.86302401322993        1.17623963974247       -0.01322213118837
N           -3.39233699964198       -0.04106142488886       -0.00115923906121
C           -2.82485373752024       -1.24226428763195       -0.00143617015575
C           -1.45699028115234       -1.61149563448508       -0.03799042573893
C           -0.47628860539213       -0.66371876483992       -0.03375600886512
H           -1.21215998635566       -2.66552356642818       -0.05084773058262
N           -3.73466630374950       -2.24405531240413        0.01640584706193
H           -3.45336159573878       -3.20396316989756        0.09415908257480
H           -4.70621686654269       -2.00011390103903        0.09244095116660
N           -3.78092930932075        2.16129345907580       -0.04619168422663
H           -4.75745287533013        1.93097020239818       -0.06309773019600
H           -3.46530278053852        3.11437625719789       -0.04520150549972
N            2.89225570134596       -2.09163191581094       -0.00221006979009
H            2.35652574968126       -2.88151932383676       -0.31897069259823
H            3.87700729892594       -2.11120552347994       -0.21506956135580
