25
 energy: -45.818367861035 gnorm: 0.000706270138 xtb: 6.6.1 (8d0f1dd)
N            5.14388475151686        0.38773228805241        0.06034282319451
C            4.03233988061994        0.10068771610882        0.02441422024142
C            2.65670899662336       -0.21459746801094       -0.00473861932521
C            1.76062278611301        0.91718833790055       -0.03012032594750
C            0.40998906712448        0.71288964589826        0.00848030481668
C           -0.86908066559488        1.50295291989766        0.02358032792240
C           -1.59554782878982        0.26178656082090        0.06024772576782
C           -2.98702883927534        0.56615077277093        0.04470706522223
C           -4.01231512518583       -0.37873836267308        0.06933623422512
N           -4.79118456825772       -1.22519314887454        0.08514737599703
C           -3.06533811172329        1.95395040484395       -0.00371164730826
C           -1.74858391296213        2.53987422903871       -0.02681650312701
H           -1.56316002242020        3.59823406869200       -0.07686406881274
H           -3.97850016973911        2.51958624655557       -0.02162543227898
C           -0.38947277107462       -0.47494658300221        0.02953738562809
C            0.00482714680986       -1.85155148502873       -0.01715194242164
N            1.24336433774736       -2.28569795958086       -0.01121112221764
C            2.36621522530979       -1.57075091108071        0.01550799600493
H            3.23791278533042       -2.22031622895548        0.04979890537943
N           -0.97223658273483       -2.77440567178707       -0.06745731614722
H           -0.72070405936772       -3.74721290320612       -0.09838062416737
H           -1.94099758748332       -2.50420054286224       -0.05269314248240
N            2.27833799101917        2.17907242725106       -0.13627849908172
H            1.65890470928171        2.95097601753675        0.03949323307143
H            3.25869936971303        2.31876457129414        0.04094889914617
