26
 energy: -45.559839267841 gnorm: 0.000838219960 xtb: 6.6.1 (8d0f1dd)
N            5.45300223643033       -0.00118661088053        0.05782244673973
C            4.31799675008932        0.19251109505936        0.03047433382248
C            2.93876023254785        0.38243864317316        0.00635781618136
C            1.99591267796721       -0.70798696417442       -0.01080057718932
C            0.74808439124011       -0.09529177597524       -0.01541860897728
C            0.92814508245493        1.35907254101099       -0.00558283684902
C            2.27488899485786        1.63988728129657        0.01039098882066
H            2.77636885621800        2.59041157004188        0.02506753460512
C           -0.49637925767947        1.53132855023715       -0.00587206857355
C           -1.43674537319589        2.52856895375271       -0.00230837180329
C           -2.81068084207100        2.28109475648409       -0.00172491813244
C           -3.51860293130791        1.09193065135322        0.00049653974359
C           -3.11504165048942       -0.25706871566017        0.00376447159727
C           -1.77932593682831       -0.74672383609915       -0.00024972257407
C           -1.54839891167441       -2.13330368287595        0.01405115642254
N           -1.32409520536863       -3.26191315788164        0.03165727940942
C           -0.65885658139919        0.06787355200915       -0.01130601887385
N           -4.09778862933942       -1.18838412851787        0.01206731236091
H           -5.06387058080559       -0.91480107881074        0.01417549343466
H           -3.86820847248980       -2.16767457359451        0.01352868839601
H           -4.59708085695522        1.20941526015937        0.00224803561724
H           -3.43360703951923        3.16786682815900       -0.00175060265592
H           -1.10432197757499        3.55709540400240       -0.00080805713355
N            2.30994834796252       -2.02033119826187       -0.06020967103907
H            1.58344992343181       -2.70783082832128        0.04155885951691
H            3.26745419409852       -2.30367565498564        0.05893399323347
