27
 energy: -50.062621649897 gnorm: 0.000160086195 xtb: 6.6.1 (8d0f1dd)
N            2.21906419124686        4.11086431176020       -0.02410880717409
C            1.88094998045427        3.01380133818297       -0.01886617852485
C            1.43568776341382        1.67145332458759       -0.01274177460104
C            2.47341295397654        0.70790931856554       -0.00586497779177
C            2.47052704340177       -0.66993742727244       -0.01110256373456
C            3.75171963961774       -1.26971934724173        0.01580881906121
N            4.78051847495877       -1.77750875687182        0.05260427839681
C            1.36040706283836       -1.59022279605938       -0.02890632963394
C            0.07551505158193       -1.12660098019332       -0.01397144494891
C           -1.31415990365978       -1.69062592346308       -0.00773484689355
C           -1.82605062261797       -0.34855775566975        0.02065697865024
C           -3.24783548884289       -0.41857358855403        0.01773480506012
C           -4.09867198281756        0.68604075872852        0.04331735441014
N           -4.71719155343310        1.65575650635432        0.06401413837516
C           -3.55521327973529       -1.77598067638477       -0.01378201360205
C           -2.35525741747939       -2.57000091136729       -0.03475180879701
H           -2.34671677718140       -3.64476870541062       -0.06747285186868
H           -4.54970181852551       -2.18209423195278       -0.02216708563999
C           -0.51294957959448        0.18184082523219        0.00518653691668
C            0.04700854255792        1.48557064442314       -0.00613801275656
N           -0.80840501023286        2.52681423483702       -0.00727501770416
H           -1.80146913824307        2.36207187822993        0.00150811474669
H           -0.46906856619190        3.47401405641376       -0.01579464852232
N            1.61123333209215       -2.93359383898753       -0.11610852592677
H            2.53816857664040       -3.27116720615650        0.08060284363344
H            0.84323804598273       -3.55834909311462        0.05727976565206
H            3.46393527629217        1.15247251078420        0.00572388071779
