29
 energy: -47.895221156864 gnorm: 0.000875768641 xtb: 6.6.1 (8d0f1dd)
N           -3.68102574274688       -2.55878997625972       -0.01220137672260
C           -3.15830415938390       -1.53058382151666       -0.00641167180453
C           -2.48102881669998       -0.32011180960363        0.00870464895079
C           -1.06764239447914       -0.13077414042503        0.01152176825527
C           -0.80369908435009        1.28665270017894        0.03677545868461
C           -1.97168273738027        1.97157939850713        0.05559898426436
C           -3.02709372909599        0.97078243787459        0.03502342923110
N           -4.36005942991231        1.28138761405415       -0.03465801788885
H           -5.00633044445721        0.53334839008080        0.16056951130295
H           -4.63545436861273        2.18952514100339        0.30142482601012
H           -2.15904832475530        3.03128212236694        0.08368569774719
C            0.67225836336751        0.97596702827751        0.03779824610955
C            1.86099872691141        1.62648591596942        0.03411689715631
C            3.10752362508038        0.92771296132540        0.01221600661409
C            3.37557879590025       -0.41759257036379       -0.01726453662624
C            2.48326742109653       -1.53790404092272       -0.01761883746316
C            1.11530854179810       -1.59131191372534        0.01103489944113
C            0.30841353585675       -0.41663780163199        0.02388918939882
N            0.44760023314516       -2.78126979786385        0.07224342283189
H            0.93685404348155       -3.63625221374672       -0.12431494819149
H           -0.54822541623256       -2.77416674122367       -0.07098435488318
H            2.98627433059716       -2.49909390745804       -0.04529534128468
N            4.71367478503982       -0.78360954541535       -0.12807589352543
H            4.95735611555859       -1.70291875131902        0.20337000242564
H            5.38692060008076       -0.07329863510602        0.11061992992190
H            3.97686310873427        1.57623887233832        0.01232734795120
N            1.90705881318624        3.01552433580326        0.13445766762848
H            2.71288626407037        3.45424356046859       -0.28334013679076
H            1.03692042350174        3.47014855883284       -0.09721126864440
