26
 energy: -50.347227023252 gnorm: 0.000647884355 xtb: 6.6.1 (8d0f1dd)
N           -4.67430125517398        0.00210405172905       -0.00056418722320
C           -3.52374150395701        0.00161445166080       -0.00044177612795
C           -2.11049540502384        0.00101290688417       -0.00034809106375
C           -1.54502516141209        1.30507773597584       -0.00058491812003
N           -2.40228704232468        2.34199386401190       -0.00068483717030
H           -3.39838811866310        2.19499209107711       -0.00066334341785
H           -2.04706255857443        3.28477283363363       -0.00087179388940
C           -0.15961307487969        1.64873122798467       -0.00059474297581
C            0.17702176314132        3.01977215859469        0.00042223128170
N            0.42406401271078        4.14118122528225       -0.00241353613892
C            0.86695346631714        0.73114803748819       -0.00050544116273
C            2.29839826976902        0.73670105885111       -0.00036190474376
C            2.29777371896524       -0.73841502120959        0.00004759126101
C            3.62735963175392       -1.10974087791360        0.00040744537291
N            4.39665320382140       -0.00174553460253        0.00019911196958
C            3.62829785506815        1.10690101277384       -0.00031652646862
H            4.08436836634343        2.07846387856452       -0.00055055790293
H            4.08260672403868       -2.08168964988168        0.00083983133122
C            0.86633473630741       -0.73165054079424       -0.00006678290105
C           -0.16101089848789       -1.64836301623928        0.00031621720742
C            0.17445218027124       -3.01968531082262        0.00111860307070
N            0.42052617380167       -4.14125503037355        0.00127805271819
C           -1.54613160050337       -1.30353099811156        0.00016071218682
N           -2.40427197832235       -2.33971930574907        0.00059037499620
H           -3.40024807976058       -2.19187297538452        0.00054904643441
H           -2.04984577272636       -3.28279897282951        0.00095707827612
