27
 energy: -44.469415618795 gnorm: 0.000633330320 xtb: 6.6.1 (8d0f1dd)
N           -1.73062015943639       -3.13381402505403       -0.06072643709771
C           -1.68488918273657       -1.98353925362109       -0.01505854683576
C           -1.58955737258176       -0.58366364733860        0.01873579849306
C           -0.30870584827536       -0.05074027261227        0.03033972326238
C            1.01716302706080       -0.52246814975709        0.02891363606785
C            1.52302901006029        0.85389213613092        0.01100352417478
C            2.91783686154806        0.79588401594797       -0.01509685963477
N            3.81016699167633        1.83303863503202       -0.10796090244358
H            3.47504486939317        2.73987847540443        0.17251850574271
H            4.76304349012058        1.63014516518090        0.14785043073288
C            3.25606097084058       -0.57862489250042       -0.01388821046676
C            2.10529607981826       -1.40027052937421        0.01267122960557
N            2.07868485835489       -2.76022721925609        0.08958922288527
H            1.19738358926930       -3.21501252862460       -0.08407966571883
H            2.90801625951655       -3.26656862554079       -0.17025416467803
H            4.26569633241926       -0.95065195534359       -0.03145477466508
C            0.19104208823454        1.34777346532802        0.01653745930182
C           -0.50383039820347        2.53245107126849        0.00643441233309
C           -1.89548883856303        2.60192843658689        0.01286952847598
C           -2.85727334557810        1.60309207024451        0.01873006228475
C           -2.77354362435985        0.20150594904246        0.01814389912407
N           -3.95245693444862       -0.48296300004345        0.04785891440139
H           -3.94816603433467       -1.48330747177800       -0.05397725155494
H           -4.82100018252056        0.00703627112481       -0.07110169119481
H           -3.88052018588406        1.96531597518249        0.02155469718784
H           -2.30208528251709        3.60697703646860        0.00892159650835
H            0.04896703202673        3.46266312980165       -0.00725982339156
