26
 energy: -45.553760112271 gnorm: 0.000862526264 xtb: 6.6.1 (8d0f1dd)
N           -2.45327317413003       -3.77260726990264       -0.01087216003772
C           -2.15039652430793       -2.66502914044778       -0.00239253897278
C           -1.79094731471066       -1.30171863269202        0.00623308623033
C           -0.44238414569090       -0.96329737880348        0.01061689599917
C            0.83596288305727       -1.57573798621189        0.00549914055969
C            1.47028595109665       -0.24859828023105        0.01300377434669
C            2.85039352582883       -0.41741376962672       -0.00471855147762
N            3.81999049337158        0.53026558285618        0.05045057468632
H            3.55968893606829        1.49143956195799       -0.09307560285180
H            4.76713567463749        0.26821815400339       -0.16039951611188
C            3.05195777004257       -1.83262017130870       -0.02416772853080
C            1.84116111906041       -2.53320920367453       -0.01978787243036
H            1.74016119360365       -3.60293323755300       -0.03419250623581
H            4.02441872310724       -2.29224456773273       -0.04132070921549
C            0.19470759815887        0.36566838397489        0.01540285210244
C           -0.31713882859779        1.65225573771888        0.00469948051722
C            0.61938917772627        2.69987857047900       -0.01903506349455
N            1.41125062205996        3.53478319297147       -0.04791703359954
C           -1.70864590134436        1.95334554082940        0.00683346706501
C           -2.77448941753139        1.03297270757540        0.01280004559931
C           -2.82052650944542       -0.34726840259480        0.01109001438806
H           -3.81979937746154       -0.76829622401953        0.01242336042747
H           -3.74746552690712        1.51257084564275        0.01584069218442
N           -2.03881848107107        3.26620310166157        0.00178768165367
H           -3.00107449739112        3.55292457088826        0.00092818541056
H           -1.31923418812964        3.96893448643988       -0.00356930891197
