23
 energy: -42.374640205552 gnorm: 0.000807062058 xtb: 6.6.1 (8d0f1dd)
N           -3.52954924400079       -3.29177656338489       -0.01199332613901
C           -2.79675286457853       -2.40938493700911       -0.00576585614800
C           -1.89592906059427       -1.31603453996398       -0.00079285039152
C           -2.55395031497950       -0.02114870977942        0.00021052840161
C           -2.04021925062568        1.23731439365400        0.00249376536338
C           -2.98629347098742        2.29329962081066        0.00034535766384
N           -3.73734203865939        3.15969077754768        0.00195491349320
C           -0.65581496192855        1.68440170883647        0.00401097521758
C            0.36712406180235        0.82568611687635        0.00537490414040
C            1.84848710841367        0.86600909921332        0.00277046720427
C            1.84988436962267       -0.60090347717389        0.00913621151753
N            3.09878314007839       -1.11349262435833        0.00221403106736
C            3.87410398616610       -0.03740984194023       -0.00775711115993
C            3.13589438338181        1.25201008100359       -0.00950353856805
H            3.60212196727093        2.21836900143359       -0.01881092296267
N            5.21133848069654       -0.12089961783114        0.00395125797267
H            5.77882562599480        0.70112489429329       -0.09400518541885
H            5.63676444851513       -1.02974016035813       -0.04647294899773
C            0.45919058335425       -0.64573068642278        0.00701730424933
C           -0.56468909303057       -1.61926222342876        0.00236967260612
H           -0.26583054523331       -2.65993557096446        0.00161917665972
H           -0.48830325056725        2.75169862163571        0.00250588386714
H           -3.63683902821164       -0.09323793138985       -0.00163489653846
