26
 energy: -45.544101907173 gnorm: 0.000849733259 xtb: 6.6.1 (8d0f1dd)
N           -2.70723850185038       -3.57572122288624        0.04447127499012
C           -2.32549239988983       -2.49020867066468        0.01316218111489
C           -1.87509166685882       -1.17338624940197       -0.01037682494023
C           -0.53902756567180       -0.69175495013394       -0.03751191693160
C           -0.56594219488497        0.74234784622252       -0.03753334790092
C           -1.87036774177501        1.17911568591444       -0.00746343331576
C           -2.38786454645174        2.47390575666721        0.02782549193402
N           -2.83669786568477        3.53187276911831        0.06856251756433
C           -2.69205128999418       -0.02821136912954        0.00575266709897
N           -4.04769077406227       -0.00654028558817       -0.02090072369781
H           -4.52394629379011        0.85840957483060        0.16904555630330
H           -4.54634458998682       -0.86479966530077        0.13982916302911
C            0.91907336132831        0.76183460048219       -0.04539885099034
C            1.93911591940819        1.64869197821199       -0.04798938986439
C            3.30508034496903        1.26923166967669       -0.03428443071454
C            3.88487980292240        0.01804761511304       -0.02356444563863
N            5.26710679394190       -0.03980957932602       -0.08119481110505
H            5.77125938014836        0.80529347451371        0.12878421780842
H            5.71381010762098       -0.88733274461408        0.22599399355175
C            3.24953707614852       -1.27160666086061       -0.02638538930415
C            1.93450858799868       -1.61662659697699       -0.03016971161096
C            0.87714226444893       -0.68676731099051       -0.03928702091698
H            1.67282595922698       -2.66647625047786       -0.02644265472918
H            3.95522803228549       -2.09534623843792       -0.02662681801654
H            4.00363960021919        2.09802462983030       -0.03376423126182
H            1.72118752843368        2.70698193190832       -0.05134677045610
