27
 energy: -50.084816622277 gnorm: 0.000752164618 xtb: 6.6.1 (8d0f1dd)
N           -6.36908661604846       -0.31158703687440       -0.00023230514065
C           -5.21951426673658       -0.30979047597226        0.00012224787888
C           -3.82106752833511       -0.31637014902805        0.00005303911762
C           -3.03038469563805       -1.50779153481472       -0.00036608557800
C           -1.73012010730401       -1.07712181225135       -0.00022272801922
C           -1.71487055985948        0.38821374686038        0.00028043025459
C           -3.01174583156373        0.85078514841087        0.00035149178876
H           -3.37794040552136        1.86017372610234        0.00064401981780
C           -0.28556320538057        0.37325642521829        0.00013767263598
C            0.74944100810432        1.28712517466430        0.00038258163396
C            0.42324835494204        2.65874640848713        0.00192561505365
N            0.18403837970951        3.78260345778828       -0.00047522216002
C            2.13145840405976        0.93325493831515       -0.00006744112622
C            2.68680864526590       -0.37388018581268       -0.00065181966197
C            4.09708759597249       -0.39055268226498       -0.00234104618006
N            5.24856838935805       -0.40947185914624        0.00123443801978
C            2.09493176088920       -1.67186154100434       -0.00086173421098
C            0.72445756514266       -1.99891879847017       -0.00070167658668
C           -0.28838678697765       -1.08691931959108       -0.00032538983673
H            0.47286146776192       -3.05098799357446       -0.00102454944765
N            2.94568717751835       -2.71879696675947       -0.00139570373890
H            3.94277354065358       -2.58186708904246       -0.00153860659249
H            2.58668906399971       -3.65697070605841       -0.00155908764270
N            2.99771805323903        1.96431486345886        0.00005044252287
H            2.65026732935768        2.90964876990211        0.00045235189368
H            3.99209214477774        1.80796856498641       -0.00022566920999
H           -3.42807851348697       -2.50571038042900       -0.00066877368528
