22
 energy: -37.853749197572 gnorm: 0.000846331521 xtb: 6.6.1 (8d0f1dd)
N           -4.48984041272089       -1.57964726714474       -0.00309242781174
C           -3.47767772611477       -1.03779517382029        0.00076598753919
C           -2.22571782192712       -0.38384590418505        0.00256053305218
C           -1.08037749042352       -1.25408954693026       -0.00034397476426
C            0.17391867426253       -0.76952119980764        0.01010712051695
C            1.58552806182755       -1.22884460514934        0.01081066442363
C            2.01435142858621        0.17013350780391        0.02870550181344
C            3.43271916976198        0.19037153117035        0.02148202471414
C            3.82207661063583       -1.12390907574485       -0.00163795154956
C            2.67469690266356       -2.02416880951335       -0.01314156374800
H            2.74869163024840       -3.09594429604735       -0.03702528948719
H            4.83931984467779       -1.47221178029126       -0.01249146245959
H            4.08205619920924        1.04659245388178        0.03486165900152
C            0.68473839384886        0.59464879729840        0.01856028698368
C           -0.04643587177302        1.83481394858386        0.00073086789789
N           -1.34530269596423        1.96082745931014       -0.00001308606812
C           -2.27778422372068        0.99687814166481        0.00691314322165
H           -3.27621035024974        1.42766195099455        0.01227473872059
N            0.68030283334312        2.97184945634451       -0.01562015788625
H            1.68323237409106        2.93579363029369       -0.02143058840305
H            0.20286362165908        3.85576722890772       -0.03418265534608
H           -1.26371648222126       -2.31916971311960       -0.00868542966101
