27
 energy: -49.283519669298 gnorm: 0.000607729601 xtb: 6.6.1 (8d0f1dd)
N            4.72307952166422        0.99226525956409       -0.00382684846953
C            3.59214265740286        0.77028780769457       -0.00192489345033
C            2.20990778417036        0.50795650137639       -0.00091738179350
C            1.87420582896913       -0.87287349317770       -0.00064175928669
N            2.89897028296062       -1.75274666277633        0.00453358051530
H            3.85246273721265       -1.43237085033170        0.00529325159881
H            2.70727198009934       -2.74052440975729        0.00180423379151
C            0.56571912385740       -1.43040681133966       -0.00542890385186
C            0.43683133400582       -2.83136965710454       -0.00241569590351
N            0.35321104278950       -3.97831700255091        0.00247018237721
C           -0.57874046284959       -0.65118931265909       -0.01214134199085
C           -0.74661972366291        0.82483254757465       -0.00216330671245
N            0.07388403778932        1.83855280548647        0.00576350265574
C            1.40097067000400        1.68661472215402        0.00113501196568
N            2.04419910349336        2.87186610420531        0.00381687624805
H            3.04746040794129        2.93399746321320       -0.00860357482853
H            1.47908042041827        3.70267064456971       -0.00438169823055
C           -2.15134460890541        0.66909523003073       -0.00073163349903
C           -1.98536239201277       -0.80031674768375       -0.01325439082212
C           -3.24019069181441       -1.37878288325007       -0.00753031678261
C           -4.15881167323783       -0.31762281515573        0.01194458759612
C           -3.51322234188226        0.94966694192003        0.01863896741093
N           -4.13770595652807        2.16525610771573       -0.02558175354980
H           -3.58303301571176        2.96771847938949        0.22149970347315
H           -5.10374023578376        2.19446374216265        0.25642688830360
H           -5.22816512986010       -0.43911109155640        0.02214141671814
H           -3.49456722392918       -2.42268142561400       -0.01405673538288
