29
 energy: -52.724332776718 gnorm: 0.000705087527 xtb: 6.6.1 (8d0f1dd)
N           -5.04813530302807       -0.44759867398436        0.02061379888083
C           -3.89673944668290       -0.38863897120623        0.00660249179103
C           -2.49211033785389       -0.32026942137872       -0.00729466526953
C           -1.85362942459081       -1.60247403266201       -0.02081912759896
N           -0.56572041363994       -1.94308890889820       -0.02304503875879
C            0.39424672612086       -1.05775483919655       -0.02530466395548
C            1.80028701088476       -1.08221436058262       -0.02102757893387
C            1.82488911091012        0.40019023357390       -0.02878120669315
C            3.15416657479475        0.81922490087012       -0.01068189207015
C            3.92704752199223       -0.36692509344982        0.00737200969157
C            3.12135393858089       -1.53028176639836        0.00184668273781
N            3.57566156767849       -2.81655553057498        0.08495493093973
H            2.92340854918553       -3.54096175548961       -0.16454903292121
H            4.53616720259572       -2.98318329009929       -0.16518128471302
H            5.00309942434735       -0.38209126488622        0.02570692277122
N            3.63090998664262        2.09490146774262       -0.08063444361502
H            4.58524673381307        2.25644830055155        0.19288860740801
H            2.97976523906657        2.84000271570305        0.10546664364794
C            0.42364539214382        0.44082972284382       -0.02867964689459
C           -0.60355153256578        1.37097169878469       -0.00980355368530
C           -0.24659660324274        2.72871561155939        0.01836491229663
N            0.08454799464425        3.83082843999729        0.05135238818908
C           -1.97354865698402        1.00048975501708       -0.00141664383735
N           -2.86804176704966        2.01763001525122        0.01540703374748
H           -3.85641542942349        1.83401331777051        0.02475367593532
H           -2.54160891860190        2.96857262450856        0.02085539726104
N           -2.66412738152594       -2.68573576404301       -0.03625755852364
H           -2.22487242263558       -3.58872233945295       -0.02040978548945
H           -3.66496751697577       -2.60352426387123       -0.00463221623798
