24
 energy: -46.119487042114 gnorm: 0.000610262342 xtb: 6.6.1 (8d0f1dd)
N           -5.43829159068929       -0.19474243549549        0.04452709287746
C           -4.28821236245653       -0.19524695009851        0.02130780084706
C           -2.89341824923611       -0.13740228837889        0.00360153752768
C           -2.17063142046096        1.11629384638703        0.01748933078203
C           -0.83179859852797        0.75509938731925        0.00387872959695
C           -0.74179600576139       -0.71716688985635       -0.01607864842608
C           -2.01852592501385       -1.24627691969795       -0.01690460631674
H           -2.32676826839161       -2.27517899805452       -0.02838494571862
C            0.67025032805212       -0.64466832174497       -0.01379502352409
C            1.80581076457111       -1.44601096118745       -0.00793627862647
C            1.68762803183255       -2.85128654736948       -0.01503506764632
N            1.59345465290555       -3.99498287107476       -0.02061729319236
C            3.09051752630270       -0.86843590864908        0.01734759340492
N            3.48301430680532        0.38026182097981        0.01921118241963
C            2.78053468996107        1.52166852705090        0.00812829048398
N            1.46464774573658        1.80179234565085        0.01762049120222
C            0.58346148637599        0.84348301171320        0.00596252137883
N            3.56167778981289        2.61185784681496       -0.00701465307247
H            3.13769200499347        3.52275233359006       -0.01443209655135
H            4.56000628530963        2.49659845538373       -0.01298118664510
H            3.92541556779258       -1.56639350167489        0.03712793299625
N           -2.74484728668200        2.33743139879362        0.00213467153820
H           -3.74035239100827        2.41593494949520        0.12170789478415
H           -2.17399402842365        3.15352956470371        0.13053369118033
