26
 energy: -45.543204423775 gnorm: 0.000997866492 xtb: 6.6.1 (8d0f1dd)
N            5.17219297591874        0.42867086331448        0.05133428974209
C            4.06405845935351        0.12755963058815        0.01197443859466
C            2.69591757196108       -0.22282617124426       -0.01499060817787
C            2.44073130892982       -1.58618220974246       -0.01408866191184
C            1.25610124053895       -2.32920811994017       -0.01848553115184
C           -0.06182838799494       -1.89379674787506       -0.00553139042983
C           -0.38679900387290       -0.51468024331261        0.00535163062662
C           -1.58476457606975        0.25332027838985        0.02018136288761
C           -0.83432317242960        1.47332056324516       -0.00639276174617
C           -1.69696886075241        2.53435929462708       -0.02777601202936
C           -3.01648067248442        1.97983801245040       -0.00694503957300
C           -2.96473250651490        0.58337383272289        0.02146888017960
C           -4.00733435026401       -0.34067595606353        0.04431572226888
N           -4.79945096285522       -1.17551329342809        0.06126698131951
H           -3.92032494734778        2.56040187433775       -0.01228010213949
H           -1.48613606802960        3.58831881334291       -0.05753780722830
C            0.42516361933991        0.66215403066649       -0.01482771298131
C            1.77699371121653        0.88092394529851       -0.02890121725735
N            2.26338917477241        2.16107514786578       -0.11608622962850
H            1.61818037844348        2.90628841695113        0.08218185745385
H            3.23245938295448        2.32489944755960        0.09959588818343
N           -1.09467285820073       -2.76966555899956        0.01057483974133
H           -0.93462238729224       -3.75927938893240       -0.04068398578660
H           -2.04113942824832       -2.43018683538651       -0.00991067747725
H            1.39123746154118       -3.40433335754298       -0.02478208286562
H            3.33873438068655       -2.19469434919201       -0.00791714061283
