24
 energy: -46.103167668869 gnorm: 0.000668910445 xtb: 6.6.1 (8d0f1dd)
N            3.76698381063183        1.88828699926525        0.00113658292832
C            2.61886807636623        1.90183749452493       -0.00131574117598
C            1.20915858628714        1.84469519059794       -0.00061618918716
C            0.45484181559420        3.03595277149378       -0.00148607089441
N           -0.84220363546271        3.25577826200416       -0.00195076436020
C           -1.86968508592793        2.43424494501879       -0.00183791716631
C           -1.95128439446232        1.02660220294671       -0.00118938503345
C           -3.21168011555698        0.39263174077481       -0.00185146585180
N           -4.20899374545145       -0.17615379326123       -0.00075492271708
C           -0.82946389057845        0.21409703856540       -0.00041586365015
C           -0.46229821211171       -1.14385169403611        0.00026025259763
C            0.96028774225596       -0.77559426979883        0.00050370994437
C            1.66410141623008       -1.99730388880801        0.00128068739476
N            0.78485894907138       -3.02973093870759        0.00143794957411
C           -0.48490260211700       -2.55360791853051        0.00083821296673
N           -1.53741766017178       -3.37600752107547        0.00087240465709
H           -2.47255571457602       -3.00882698148248        0.00031377811390
H           -1.37993654825631       -4.36835690897862        0.00122523014996
N            2.98346313474259       -2.20566083726136        0.00177973813630
H            3.62293608129142       -1.43081803431484        0.00170887336075
H            3.32732306767798       -3.14975705602672        0.00235858774642
C            0.62244656702702        0.58993859882236       -0.00011577880704
H           -2.82121922769506        2.96088335397100       -0.00245808265391
H            1.03134622489191        3.95812881559662       -0.00201673087287
