27
 energy: -49.273151020547 gnorm: 0.000880858204 xtb: 6.6.1 (8d0f1dd)
N            2.03427783164871        3.43141616244913       -0.03017433423439
C            1.16833235084900        2.67418334007845       -0.01169694121457
C            0.12455020696305        1.73262970828238        0.00176286824565
C            0.48045444192381        0.39702611133413        0.00860792833570
C            1.66643922145926       -0.37252058025664        0.00800760627388
C            0.87007873084801       -1.61615587268656       -0.00203428889835
C            1.78747711892215       -2.64568631091717       -0.02583256925003
N            3.04170727273863       -2.14567962126433       -0.02952377613103
C            3.00056242870757       -0.78762831164024       -0.00668721608078
N            4.13367316354690       -0.05271001739173        0.04947041078634
H            5.00035924738031       -0.53394509753885       -0.11461648412618
H            4.08647364966910        0.93499701090055       -0.12843794606798
H            1.64229100414903       -3.70981703175322       -0.04428201782610
C           -0.32906642184044       -0.83883176541798        0.00498876869879
C           -1.68954136738094       -1.03233173046239        0.00677033892156
C           -2.18076910595547       -2.35250216734806        0.00351371085808
N           -2.60845754867465       -3.41952456185956        0.00014513809228
C           -2.64171413765460        0.03955096401544        0.01026193148680
C           -2.38767232803901        1.41076610097750        0.00786599747924
C           -1.22476755384316        2.18870148065575        0.00249495701807
N           -1.39448835998908        3.53428233898726       -0.00774882491636
H           -0.59381736051624        4.14231394522350        0.00536037419979
H           -2.31207154216207        3.93978048705747        0.01091838263680
H           -3.29473680135764        2.00903827411043        0.00938655648063
N           -3.94400262499470       -0.33755571144313        0.02002154164592
H           -4.18638893295997       -1.31342474252899        0.00611436410507
H           -4.67954589873730        0.34504525683705        0.00092026318110
