24
 energy: -41.286398721733 gnorm: 0.000783726696 xtb: 6.6.1 (8d0f1dd)
N            4.02836538837603        2.20100254687611       -0.08054586547641
C            3.09796070202336        1.52438491173169       -0.04509776288466
C            1.96348942384209        0.69276815818275       -0.01958680457802
C            2.19564092709026       -0.68409812736748        0.01837449634810
N            3.50024168976580       -1.09500583023945        0.08662714233535
H            4.22932993682351       -0.41554923052814       -0.05165016444368
H            3.72780473084541       -2.05921535919603       -0.07863296375629
C            1.25119993855305       -1.75462878895501        0.08244002882658
C           -0.11589757924918       -1.77323043081503       -0.01838114517747
C           -0.88082782397108       -0.58975281836268       -0.25666059612628
C           -2.23836715182617       -0.29744933344148       -0.44958938201995
C           -1.93252750881439        1.09739766130532       -0.11286429849321
N           -2.95892838043190        1.72230205262912        0.36346441958962
C           -4.01606850279723        0.82998486595338        0.19382029554013
C           -3.63395790245306       -0.41656120188542       -0.24712533497586
H           -4.27789888653316       -1.25198314977414       -0.44606988829467
H           -5.00515647083376        1.16008405082314        0.45250831606453
C           -0.47665442280561        0.79477645855331       -0.12096610473311
C            0.71347459743341        1.40005809129639       -0.00696017141306
H            0.76661485060090        2.47478177742042        0.09260599540979
N           -0.81176764454780       -2.94478528898664        0.02065192216085
H           -1.81259637798735       -2.89244297335133        0.09995107749300
H           -0.36090084529947       -3.78432026620524        0.33897615189909
H            1.71415967449618       -2.72768599626358        0.21412171900582
