22
 energy: -37.069160060228 gnorm: 0.000585994598 xtb: 6.6.1 (8d0f1dd)
N            3.78588478864679        1.19194465526817        0.01717108744960
C            2.65481950328731        0.46167565372091        0.00296005308954
N            1.54096043200685        1.21307758807344       -0.00013920238126
C            0.36292310901698        0.65073503876284       -0.00294729874702
C           -0.98711486515275        1.08818931426249       -0.00381371821467
C           -1.44013719279827       -0.30978040539008        0.00644744498809
C           -2.83514877744084       -0.31267407875948        0.01558643369662
N           -3.69109253394553       -1.38395927403897       -0.03364277107372
H           -3.31960467789682       -2.27280804361637        0.25883548115797
H           -4.64452125202564       -1.20776487765125        0.23932781800536
C           -3.21681584638629        1.05297857350438        0.00310253177894
C           -2.10266539800206        1.90736528683844       -0.00986513049818
H           -2.14571153017327        2.98127915733343       -0.01972159529536
H           -4.24110495764545        1.38419396388662        0.00390435812727
C           -0.10018112959156       -0.76443620827762        0.00295654934590
C            0.65205674864402       -1.92154117064326       -0.00469335259127
C            2.04351676608204       -1.86582066668692       -0.01319475511174
N            2.89003850618963       -0.85592991517840       -0.00708789732911
H            2.56467112718263       -2.82204634825668       -0.02556878007639
H            0.17006495629820       -2.88999633109031       -0.01007117681941
H            4.67246662864702        0.72085528615737        0.01149091299092
H            3.71965041485704        2.19384969328127        0.01678147630791
