25
 energy: -45.813762938198 gnorm: 0.000835725020 xtb: 6.6.1 (8d0f1dd)
N            5.28585313956714        0.84257874267691       -0.00030656505455
C            4.22478762391069        0.39766752293236       -0.00197627769296
C            2.91801238590253       -0.12239925025238       -0.00196329318791
C            2.85119445775072       -1.58065779964157       -0.00175794981063
N            1.90415028294680       -2.43612325760302        0.00525267343271
C            0.55422630111771       -2.20007838321192        0.01287823282146
C           -0.02002071910449       -0.98829195761511        0.00895276088426
C           -1.37095381263107       -0.36367168757202        0.00654754156934
C           -0.74800499536623        0.95734564030221       -0.00274175395881
C           -1.75700292992161        1.93937168847798       -0.01811898446844
C           -2.95777089551865        1.25228827803799       -0.01758614307234
C           -2.71921072761109       -0.21572225036955       -0.00262323440553
C           -3.75125032680335       -1.15679909062584       -0.01330874680575
N           -4.63186831019408       -1.89449587614207       -0.03242993227165
N           -4.21255593366752        1.76291836344764        0.01932857520869
H           -4.34655940952364        2.74416845004027       -0.14943928947715
H           -4.99131951693394        1.14746950052208       -0.14237095866530
H           -1.65070784590937        3.00755133272833       -0.02755698755882
C            0.52116699781322        0.36876636359320       -0.00055767642897
C            1.88217957259672        0.80225867716659       -0.00308816925838
N            2.10916785893448        2.13282934801303       -0.01367517406155
H            3.04932718229952        2.49050596122020        0.00513474406588
H            1.33275096952032        2.76924933018115        0.01441569901478
H           -0.04013245838909       -3.10384621634617        0.02031607375162
H            3.84011434531435       -2.03535950856028       -0.00789425336991
