26
 energy: -45.543401744702 gnorm: 0.000864971806 xtb: 6.6.1 (8d0f1dd)
N            3.61219214349161        2.77663231965873       -0.03787287855629
C            3.39871192759581        1.64574141745800       -0.02645192617806
C            3.02564493265961        0.30272280573057       -0.01170515617248
C            1.68433988480847       -0.17148891023974       -0.02012741230536
C            1.71969456293007       -1.61134004426989        0.00106033001547
C            3.01437056514865       -2.02940878983166        0.02664178621130
C            3.82342014711521       -0.83828250462590        0.01520921390242
H            4.89829322000107       -0.83678168861671        0.02594161424402
H            3.41253327323134       -3.02772453909626        0.05090249523592
C            0.22122383164740       -1.61695319027671       -0.00425807437866
C           -0.81731877355893       -2.48368781513411        0.00471518117476
C           -2.17029155902520       -2.08474272789946       -0.01215436916781
C           -2.74388490745508       -0.82568174630203       -0.03046597359283
C           -2.10505135075259        0.46930694082535       -0.00825443731924
C           -2.97921725310053        1.57590380400136        0.02582883744919
N           -3.66974732058293        2.49490426399351        0.07034535155101
C           -0.74902067099347        0.80631532444827       -0.01019938639734
C            0.27077768595270       -0.17927884412108       -0.02010381122885
N           -0.34193576550463        2.09555001366865        0.00319920462870
H            0.64152463466269        2.30692032021172        0.00447932923370
H           -1.00448115227042        2.85172964368143        0.01355047422200
N           -4.11490136230276       -0.78375132073096       -0.12181899429866
H           -4.62930367718758       -1.63110342503990        0.04016675943581
H           -4.59709586044388        0.08118848217185        0.05319244249138
H           -2.88446409490847       -2.89939706184343       -0.02001620643260
H           -0.61847090245830       -3.54571196192061        0.02187843403238
