25
 energy: -41.026464670066 gnorm: 0.000822600177 xtb: 6.6.1 (8d0f1dd)
N           -1.72094801525817       -3.33298860349294        0.00323364498658
C           -1.80213265886560       -2.18580136645238        0.01269764709087
C           -1.81867571730871       -0.77843803658719        0.01650756804473
C           -0.58125101764408       -0.14993535031946        0.02274057962967
C            0.78441114844570       -0.49377518221014        0.02747525139594
C            1.15861777137866        0.91618669680814        0.00983965141258
C            2.56201604436980        0.98695594208833       -0.00637748537620
C            3.02487843087528       -0.34712777546774       -0.00156198849292
C            1.95141670113207       -1.27102235201020        0.01808485168714
N            2.04156921094945       -2.61903148712705        0.07513309748937
H            1.20252361845449       -3.16278454060778       -0.03689194016279
H            2.92334129382703       -3.06638198358897       -0.10289394856370
H            4.06354352243237       -0.62597836527296       -0.01310985421678
N            3.34384831691563        2.09868368364397       -0.08130062320159
H            4.32531001433482        2.00033653654086        0.11628315401700
H            2.92590696512389        2.98596495315612        0.13806082447880
C           -0.20880834702347        1.29116082960431        0.00659731758819
C           -1.00768422301675        2.41341184099297       -0.00828907580740
C           -2.39584253840483        2.37045664361885       -0.01005923375260
C           -3.27040297710124        1.27838770121149       -0.00531360676251
C           -3.04181639769941       -0.08695110078026        0.00380172393648
H           -3.92484155919926       -0.71605253458058       -0.00050354225244
H           -4.31930079839815        1.55245487527123       -0.01267402616085
H           -2.88699107931029        3.33673233022165       -0.01932261621246
H           -0.53124663190918        3.38589620953971       -0.01971075639504
