23
 energy: -43.178612457517 gnorm: 0.000556006343 xtb: 6.6.1 (8d0f1dd)
N            5.49419079433290        0.00526622977351        0.00027165418662
C            4.34578174560690        0.00413094802483        0.00013440427588
C            2.94552495256644        0.00277672776356        0.00003978271675
C            2.14581469446395       -1.17696131075608       -0.00014463100251
C            0.84293877457054       -0.73134911229022       -0.00009146889285
C            0.84151975630271        0.73282834369843        0.00018373247979
C            2.14352905957438        1.18096450106587        0.00022865733402
H            2.52056601936730        2.18659403736695        0.00038946580564
C           -0.59246364607615        0.72327586043934        0.00036716647331
C           -1.64579537822703        1.64032433207808        0.00079560037890
C           -1.32677838643278        3.01783343954757        0.00144193945896
N           -1.05999543488532        4.13296844120203        0.00078192574270
C           -2.99373318190582        1.26460517204058        0.00099677941462
C           -3.56663887616551       -0.00354047048634        0.00088798649227
C           -2.99127402255612       -1.27057283914496        0.00057710209513
C           -1.64260889512040       -1.64367307116653        0.00023444491240
C           -1.32090802159454       -3.02055364921399       -0.00024574390668
N           -1.05195896024919       -4.13513735356899        0.00026018252901
C           -0.59105863300097       -0.72457867189392        0.00012878741664
H           -3.69124174715027       -2.09847237419057        0.00060491346186
H           -4.64918763356219       -0.00459063928495        0.00113112218790
H           -3.69530560712738        2.09114559915188        0.00134708336386
H            2.52479857986855       -2.18185852325609       -0.00028238732421
