26
 energy: -49.541021909464 gnorm: 0.000746115790 xtb: 6.6.1 (8d0f1dd)
N           -4.21830772687315       -2.24246788440900        0.37165223364719
C           -3.42091630449550       -1.42299683049859        0.22797531575824
C           -2.43794510525586       -0.43491834912377        0.06530767054974
C           -2.94293455783219        0.95727971835684       -0.04721333823178
N           -2.35728314375048        2.10488237448244       -0.02365132022833
C           -1.02555073632125        2.39266945290300        0.03008868358922
C           -0.03794592806776        1.49621414102768       -0.06253893112514
C            1.45098520851263        1.38759779448380       -0.06983938990371
C            1.34181731914415       -0.06281456354406       -0.23935605113213
C            2.67409102304625       -0.54066183439753       -0.14464965807514
C            3.13769934094236       -1.84651333001056       -0.23280533465321
N            3.48286088145649       -2.94332169540684       -0.29478905933613
C            3.43086505877874        0.63018157372111        0.06784824525048
N            2.65145653707625        1.79936833696847        0.15788089903726
N            4.75671317291479        0.73838272666453        0.21441501967919
H            5.14823429414581        1.64577013506409        0.39271375539266
H            5.34673268050351       -0.07367305806797        0.18016759700074
C           -0.04335780636072        0.03314694334986       -0.14455908057831
C           -1.12995878303979       -0.88589256671500       -0.00459628177247
N           -0.81473261388103       -2.19591544387205        0.05984866104463
H           -1.53092478165058       -2.89543474795021        0.15696653967270
H            0.14645182918485       -2.48423582650589       -0.00693739356835
H           -0.81809886421275        3.45047785362680        0.11997458391959
N           -4.29163490374887        1.02407380078886       -0.20912073607648
H           -4.70086890237560        1.94187363865339       -0.20601330673234
H           -4.87931453804024        0.21943076401039       -0.08042622892806
