23
 energy: -41.569710476217 gnorm: 0.000553913321 xtb: 6.6.1 (8d0f1dd)
N           -4.06471617273529       -2.12514549403319       -0.11583272472650
C           -3.10214223464846       -1.49581282619090       -0.06565136508357
C           -1.93393899694747       -0.71792087332038       -0.01403188311810
C           -2.11228994787788        0.67239665965613        0.04926217787815
N           -1.22329720144180        1.68123918507998       -0.10141578506460
C            0.07159779517487        1.67637426499273       -0.03713670098749
C            0.87168410565931        0.53151689943009        0.33200567693599
C            2.21915702402015        0.27308554694686        0.60159284703828
C            1.94841745180384       -1.11301135989211        0.17281808753380
N            2.97848660401305       -1.63397717280640       -0.40473637660346
C            4.01327748322822       -0.72934941594081       -0.18438266094701
C            3.60366639344745        0.46099219290735        0.36737506947663
H            4.22190753881626        1.29911826724707        0.62496637529729
H            5.00283698794179       -1.00217467607066       -0.50094946265096
C            0.48729846330543       -0.85461926363430        0.15844078231868
C           -0.69934428951705       -1.44766453686297       -0.04140502315410
H           -0.76015364397661       -2.51430386939887       -0.20150718217670
N            0.72081782800327        2.83015796844418       -0.28934734789026
H            1.72491788859875        2.85266368879264       -0.28874920499496
H            0.19881315545317        3.63229938512205       -0.59548743100752
N           -3.37229517550718        1.15494426577018        0.22077717905069
H           -4.16151814410555        0.53343236646667        0.17945019012413
H           -3.51184109430762        2.14219852409830        0.10103046555044
