28
 energy: -53.798650909309 gnorm: 0.000644044885 xtb: 6.6.1 (8d0f1dd)
N           -5.19642123840111       -0.90343770150433       -0.00128772436591
C           -4.06350825387398       -0.71330035632433       -0.00026584192274
C           -2.66646858439046       -0.48174297158541       -0.00046402108818
C           -1.92579383397847       -1.66608641679778       -0.00110511921823
C           -0.54437829563356       -1.87251088295512        0.00033753389664
C           -0.03183030961319       -3.18760657013968       -0.00243884691662
N            0.44315329321769       -4.23272115658334       -0.00665681074744
C            0.38031102919496       -0.83812729437747        0.00124081198090
C            1.76888022186182       -0.63634227302722        0.00223719553567
C            1.56778068460522        0.82861440148635       -0.00690469384268
C            2.85442427412074        1.38170686874186       -0.01099534067427
N            3.78096979476054        0.38500104917943       -0.00257686109398
C            3.16460292349369       -0.81962672860081        0.00564448386851
N            3.86080687398348       -1.96421866688112        0.03644563319416
H            3.38690106059414       -2.84786702940461       -0.02083412099842
H            4.86301381648984       -1.92264134707292       -0.01411990042221
N            3.22569663297426        2.66985954294867       -0.04728920202267
H            2.53759333535911        3.39748430905765        0.02884088358826
H            4.20329104595540        2.89062735295116        0.01864522252681
C            0.17116623199052        0.64326669920089       -0.00438206370502
C           -0.97598307136322        1.41345376869252       -0.00119587525974
C           -0.78457941330006        2.80999106781583        0.00374329363416
N           -0.58725864117618        3.94223285806985        0.01186292271453
C           -2.29769937368179        0.89598184972646        0.00069482941619
N           -3.30293165302364        1.80336010156571        0.00351777675859
H           -4.26330740275724        1.50443743319305        0.00385342774801
H           -3.09346748366032        2.78701176529586        0.00285397166372
H           -2.52813573644823       -2.56858833917119       -0.00240368044812
