21
 energy: -37.326285953749 gnorm: 0.000531236278 xtb: 6.6.1 (8d0f1dd)
N            4.61596175324753        0.17618258960364        0.09077736960635
C            3.27756730549041        0.07886549990932        0.11022709019401
C            2.55618414059842       -1.22697366205054        0.01673273070767
C            1.26765155603537       -0.86856032716475        0.05686676578342
C            1.24357750295880        0.60250480743934        0.13653671218463
N            2.49140381593008        1.13667935662855        0.17605048927111
C           -0.13843901880721        0.62953373478614        0.07354325191888
C           -1.21503797521737        1.54588092377842       -0.12361580694897
N           -2.45362329578101        1.24639335028907       -0.19016870452286
C           -3.02441193030966       -0.02783349789270       -0.01304465569767
N           -4.35570005360786        0.12769254462566        0.20993878169531
H           -4.76046688374895        1.03214310431042        0.05012879758889
H           -4.93471625455583       -0.69223375625384        0.22990607807404
N           -2.58754328100083       -1.23549136580131       -0.05709291332184
C           -1.27823127353786       -1.65457796347539       -0.10856697349109
C           -0.22273872892561       -0.84615779276336        0.00946751603726
H           -1.17810979012684       -2.72843054372780       -0.19370164950821
H           -0.97313460218339        2.59496545959632       -0.28057342606429
H            3.04326631414046       -2.18055607722216       -0.06179249229868
H            5.03339754370057        1.08137751801617        0.21514813171695
H            5.18978764020071       -0.64558523733114        0.13468021187510
