25
 energy: -45.834818826655 gnorm: 0.000542540872 xtb: 6.6.1 (8d0f1dd)
N           -4.96446370386716       -0.41471113741210        0.01686709106536
C           -3.81989945101768       -0.30379310220107        0.01077013397353
C           -2.41336541960480       -0.19162098732111        0.00438183658870
C           -1.93992557452023        1.12222939537706        0.00361443724258
C           -0.62780303711246        1.59665310401809       -0.00452474595801
C           -0.40454919638278        2.98980138115574       -0.00226942070406
N           -0.21328955671670        4.12151960748037        0.00095355350603
C            0.46625487754619        0.73113731918189       -0.01255145579320
C            1.87445040616879        0.75295870178275       -0.01512652070776
C            1.91278451456189       -0.72211245763326        0.00056668695165
C            3.24436366464135       -1.12017350916290        0.01964758153754
C            4.00202612004372        0.09313734851271        0.00971936541633
C            3.18235370820990        1.22282936164502       -0.01007924450995
H            3.52172369768314        2.24206897227083       -0.01941004461749
H            5.07770818863757        0.11798320836957        0.01845735016531
N            3.76346482781489       -2.37492358982554       -0.01036272699340
H            3.14794017681702       -3.14554703338531        0.18391916884142
H            4.73665074461176       -2.49572565255962        0.21217904040879
C            0.49708867433507       -0.75748507656265       -0.00224221092731
N           -0.40248808184960       -1.70150500351784        0.00348285439917
C           -1.71437798627778       -1.44745381934289       -0.00013066024475
N           -2.46157521343025       -2.56591674261449       -0.00398080416515
H           -3.46701755568626       -2.52872041583603       -0.00910598317691
H           -1.98181140128175       -3.44943826254668       -0.01058320281523
H           -2.71484497252382        1.88218307142741        0.00925646951679
