25
 energy: -45.014543634296 gnorm: 0.000336142396 xtb: 6.6.1 (8d0f1dd)
N           -4.49206437289929       -1.77568254869323       -0.11486209675856
C           -3.72995603684389       -0.91625252613583       -0.05197511898034
C           -2.77705616068128        0.09744070934761        0.01505870835692
C           -1.41174453925678        0.02189408162375        0.07488370887177
C           -0.93662226578047        1.36913557783544        0.08780665975490
N           -1.94534135711666        2.27957194255991        0.05249772995288
C           -3.03348368051759        1.54740493330472        0.01549707249479
H           -4.00800945319675        1.99719833404579       -0.01431424446524
C            0.41600791156326        0.92400447977807        0.06640134766230
C            1.71281138063324        1.51582349692214        0.01074263680095
C            2.84525182327462        0.74054904855333       -0.02783003472368
C            2.97548815363693       -0.69034024385425       -0.01702893294276
N            2.10745906370619       -1.66590044488972        0.01871798217284
C            0.75807451113094       -1.60602954279295        0.05127361837612
C            0.03307135291161       -0.44389303177864        0.07079124969198
N            0.13802245954371       -2.82373101822465        0.12494286569023
H           -0.84704424037179       -2.86620772424582       -0.07320147417726
H            0.69665959929044       -3.62764692476525       -0.10208499873341
N            4.26646752741044       -1.13452466955255       -0.11477650155994
H            5.03031363976429       -0.52329023949302        0.11118761632840
H            4.40205066398492       -2.12198187249293        0.01857920891569
H            3.78820709972299        1.27271551599479       -0.07916483249285
N            1.75223594414740        2.86965103270167        0.02042260261659
H            0.88274979207208        3.37224374962055       -0.02974663720278
H            2.61403703617126        3.36487654683098       -0.11850011034909
