25
 energy: -45.825927927615 gnorm: 0.000535511700 xtb: 6.6.1 (8d0f1dd)
N            5.35847041171226        0.69472024204062        0.01840670137046
C            4.21496235040445        0.59912436726868        0.00975401626290
C            2.80321141664084        0.47933942233352        0.00109430024673
C            2.13029492746094        1.71935105636944       -0.00747860466897
N            0.84711841126051        2.03456745567144       -0.00563951986654
C           -0.08101215533484        1.11381574297604       -0.00283103482539
C           -1.48657755418088        1.06941474955132        0.00075325536570
C           -1.45383749019621       -0.39751522180789       -0.00947675046634
C           -2.78159914163242       -0.87372443986929       -0.00809038949341
C           -3.59925069599720        0.27688009021175        0.00293391300312
C           -2.83483941292768        1.47009427565353        0.00884556184475
N           -3.31905718418292        2.72573503314056        0.04441423120728
H           -2.68511324149217        3.50103524335010       -0.02692696688971
H           -4.30616889077399        2.89326333965418       -0.03226875985403
H           -4.67444390291085        0.25280122961333        0.00692813997919
N           -3.18219359067010       -2.15758086411846       -0.03560688666968
H           -4.15687103294937       -2.39088363208010        0.02672441500653
H           -2.49984150001306       -2.89468876465324        0.00670395688983
C           -0.05869328272058       -0.40024108779779       -0.01048345467241
C            1.01599073985398       -1.28854626745901       -0.00622151505383
C            0.70158325734024       -2.66263765712254       -0.00320024453586
N            0.35797153148829       -3.75887964366511       -0.00051136302598
C            2.33707968131270       -0.84588493412136        0.00166503937110
H            3.10484698403177       -1.61201913444241        0.00836816696870
H            2.77657522837589        2.59272868050322       -0.01399588779482
