21
 energy: -38.148688491092 gnorm: 0.000505392706 xtb: 6.6.1 (8d0f1dd)
N           -5.42130967816354       -0.38730559957561        0.00216458938866
C           -4.27872295937706       -0.26487865943759        0.00191706703808
C           -2.88616545189501       -0.11806278351219        0.00079777030325
C           -2.21456445049440        1.13967158582050       -0.00043836072255
C           -0.87415637680509        0.83529674153508       -0.00103237395176
C           -0.71913196630613       -0.62309598822593       -0.00010939587544
C           -1.97113580173097       -1.20309341336135        0.00103779310886
H           -2.24430235014631       -2.24172633602630        0.00197944129664
C            0.69750726322575       -0.48426428362525       -0.00088423942125
N            1.72191493544518       -1.30133536843201       -0.00068922430344
C            2.96624391642800       -0.80762041070606       -0.00150717245033
N            3.91005204129278       -1.75846945963683       -0.00119633689799
H            3.61051673844312       -2.71936772479024       -0.00039566255724
H            4.89011698805752       -1.53744344597919       -0.00170866486280
C            3.41324365034304        0.55134238870680       -0.00262329672226
C            2.70524560716615        1.73140439135147       -0.00317561385504
N            1.39126821350386        1.98957499731453       -0.00283114504714
C            0.54895858200836        0.99346265986908       -0.00183421003520
H            3.29661671874766        2.64209482385080       -0.00404550286331
H            4.49184610943858        0.65596718130232       -0.00311399542439
H           -2.70041732218153        2.09730048445794       -0.00074774054538
