24
 energy: -42.109637316840 gnorm: 0.000826784037 xtb: 6.6.1 (8d0f1dd)
N           -5.92510105446825       -0.13376805273454        0.00680680291156
C           -4.77891237482890       -0.07455584715905        0.00459510623674
C           -3.36388315425076       -0.00352268387965        0.00169660756589
C           -2.85075306244009        1.30943526936462        0.00791955353194
C           -1.53720726102614        1.73822426348162        0.00531014838646
C           -0.45237241873916        0.88134790580663       -0.00244372618567
C            0.97196100917683        0.94703285056288       -0.00650735207721
C            1.04646330913202       -0.51122271827328       -0.00728405116400
C            2.38355099295596       -0.88874424448392       -0.00778209250073
N            2.95031558718236       -2.11061483566246       -0.03004163210051
H            3.95028917942432       -2.19375197682773        0.03948371261970
H            2.38552102792883       -2.93565924859039        0.05602769020395
C            3.12545593057265        0.35691846121083       -0.00872665952084
C            4.51818443829574        0.39973429779961       -0.00190102116459
N            5.66916052109097        0.39020980535011        0.00878915255846
C            2.25511211077443        1.46771647803043       -0.00736963251873
H            2.57373586892999        2.49411253814662       -0.00720071612514
C           -0.37892860339245       -0.59013155691049       -0.00642725459748
C           -1.36869671556792       -1.54939674283776       -0.00986783483257
C           -2.72383740032581       -1.25114428136040       -0.00683992519209
H           -3.39782892544727       -2.10088497330085       -0.01069504069766
H           -1.08051861982027       -2.59222920069797       -0.01548468977860
H           -1.34712535350321        2.80304805999619        0.00917331511982
H           -3.60925950565402        2.08432177866894        0.01463716842128
