22
 energy: -37.040842434048 gnorm: 0.000975635705 xtb: 6.6.1 (8d0f1dd)
N            4.07568874092701        0.31250850423534       -0.05887829907240
C            2.69334189079535        0.34927998184863       -0.01865974143655
C            2.08721019889462       -0.94529611354336        0.04623503167811
C            0.77332101178774       -1.32892780566466       -0.04569161470615
C           -0.26498716618386       -0.38886721163810       -0.31016172822289
C           -1.65702094594797       -0.46954319998250       -0.51406099695998
C           -1.74600891132144        0.93524080770033       -0.15004297952716
N           -2.91261659033112        1.16237274369867        0.38231020123831
C           -3.56669990718719       -0.04641513057085        0.19429618029512
N           -2.86157862375194       -1.05161591041696       -0.28039800348276
H           -4.59859627329337       -0.15025739099533        0.47070293593269
C           -0.25832458290613        1.04698960489579       -0.18323027248991
C            0.73236402212550        1.95100554593655       -0.07724834966791
C            2.10566605199377        1.59663047385888       -0.06328664023990
H            2.79415193083655        2.43262078096761       -0.05594517139881
H            0.48887743867947        2.99918116724857        0.01826341802531
N            0.38478793639763       -2.62514970426034        0.10525362016772
H            1.06623315114126       -3.36264272119251        0.11478363012451
H           -0.56698624777755       -2.85730019494697       -0.12360726487722
H            2.79639727358748       -1.75740065997974        0.17145357329361
H            4.56139235089122        1.17420727415575        0.12653653525991
H            4.53288818494291       -0.51480802865480        0.28557134276637
