25
 energy: -45.028753718024 gnorm: 0.000499002422 xtb: 6.6.1 (8d0f1dd)
N            5.21014154439681        0.71377956789125        0.00886680957095
C            4.07096834414777        0.55421284070262        0.00208394545824
C            2.67494081576384        0.34615570246624       -0.00453460944840
C            2.26560085979672       -1.02312196359161       -0.00006616566298
C            0.94155059281448       -1.49653710044239       -0.00698947378226
C           -0.14317381650488       -0.66903448498261       -0.01865181777007
C           -1.56108424792223       -0.72186822228887       -0.01796391355859
C           -1.63651266849404        0.74740498035441       -0.01297520514106
C           -3.01082655920195        1.05123732853002        0.01098103907373
N           -3.72883575144125       -0.09190376384397        0.01440626366396
C           -2.88490462439538       -1.16098856216271       -0.00328906373515
N           -3.38800894001247       -2.41912746050987        0.05392592354434
H           -4.37613774342575       -2.50568290146640       -0.11590221187055
H           -2.79965888771125       -3.18328656406911       -0.22835417949877
N           -3.61372701141297        2.25652332285649       -0.01770768688420
H           -3.06292939727988        3.07771205139155        0.15713313908799
H           -4.60485441841805        2.28712325849098        0.14663358955748
C           -0.23538744491958        0.83910665681444       -0.01524201557780
N            0.64785448556909        1.80434266234707       -0.01053959492764
C            1.94242625977415        1.54385439361860       -0.00915004981440
H            2.54907117709338        2.44578061919536       -0.00903981064795
H            0.79937022098852       -2.57106421685642        0.00051301540813
N            3.25201734902200       -1.95468855006995        0.00512720243023
H            3.02431322181702       -2.93152649852702        0.03798624878137
H            4.21786968115589       -1.67642180624809        0.03402507004348
