24
 energy: -45.302207301099 gnorm: 0.000855691242 xtb: 6.6.1 (8d0f1dd)
N            4.29587433807904        2.32778906641408        0.09096379724586
C            3.37144424772592        1.64183261134305        0.04660786479042
C            2.25384832432357        0.79536361583698        0.00625882839599
C            2.51316400783926       -0.57646764513735        0.01371941253240
N            1.68714339958119       -1.65610699718945        0.11368794899785
C            0.40048041898964       -1.72633251132652       -0.01314552787074
C           -0.46756205155862       -0.61976046129770       -0.34267782849527
C           -1.82111659877214       -0.42606109780923       -0.58882757207054
C           -1.64377880769275        0.99275335567036       -0.25541907113315
N           -2.75416589132722        1.47019306080452        0.19714293674904
C           -3.65207884596772        0.39695498082487       -0.03125505526372
N           -3.13086725272791       -0.75008255822919       -0.44210473371090
N           -4.95011944057941        0.58286543510260        0.22865120196191
H           -5.57539489781916       -0.20083083524911        0.18724722168730
H           -5.22802753789886        1.43889763894540        0.67311068610145
C           -0.16769830117853        0.80538888373079       -0.21791915042479
C            0.97433046995536        1.46778403721945       -0.02937642085813
H            0.98413690252896        2.54250777246760        0.07833607369574
N           -0.19707761961806       -2.92043602871443        0.15724128959014
H            0.35868621709131       -3.72975241211066        0.37025212209692
H           -1.18929378165329       -3.00168646683603        0.02003580483944
N            3.80872097132667       -0.98952467144548       -0.05123172697265
H            4.55742228937255       -0.32241606131902        0.01955078942305
H            3.99058183628082       -1.96468332299485        0.10290301309285
