24
 energy: -41.296676411482 gnorm: 0.000979533195 xtb: 6.6.1 (8d0f1dd)
N            4.14721996741116        1.48609967552582       -0.05881404673381
C            3.42004255744971        0.59434028668703       -0.04236586386810
C            2.46131171038057       -0.41740659099964       -0.02235597352477
C            1.05453593776548       -0.21785096187207       -0.02101795796857
C            0.42294496851489       -1.50658034509030        0.00395389183103
C            1.37834262191469       -2.47924374193515        0.02328547905087
C            2.64315774957488       -1.80005733238370        0.00265672060846
H            3.59746515382629       -2.29410366864299        0.00688373188342
H            1.26929428432022       -3.54961409655390        0.04940283252289
C           -0.91072650456528       -0.81479375142133        0.01655980101418
C           -2.24941729460375       -1.10870658403384        0.03277349868321
N           -2.67527580075056       -2.41332638053709        0.12679483388346
H           -1.99392211322607       -3.12370828209254       -0.08387629851058
H           -3.62204084663705       -2.61734276361095       -0.14517577265616
C           -3.21925439652334       -0.06546620585362        0.01389020623975
C           -3.04405599701420        1.29624636908123       -0.00517143921344
N           -1.97655847526014        2.10548708806334        0.00008357058769
C           -0.71074338163805        1.76895518765848        0.01059028710115
C           -0.21001256875564        0.42892010755867        0.00036549784604
N            0.19707362224098        2.76765783500072        0.03215252183021
H           -0.12631406950165        3.71853866472485        0.02503628000720
H            1.18216635693997        2.56912889633566        0.01476691979974
H           -3.95946339078563        1.88122937759725       -0.02689418848594
H           -4.24852260407751       -0.40313485690601        0.01368687327214
