24
 energy: -46.110923324112 gnorm: 0.000227582953 xtb: 6.6.1 (8d0f1dd)
N            4.61809782354969        0.30814008902086        0.00038069067049
C            3.46696862513577        0.29512583422431        0.00028662388073
C            2.05723756453440        0.28558226964600        0.00028889206964
C            1.47924020212008       -1.00883422335392        0.00064306476280
N            2.31734808102944       -2.06081089210806        0.00096198347813
H            3.31523490113628       -1.92673442680803        0.00097466031569
H            1.94670210636018       -2.99735682922913        0.00120561251102
C            0.08227064504590       -1.31724874425186        0.00069116971171
C           -0.29714601026050       -2.67538966304725        0.00103617113624
N           -0.57937856467238       -3.78880385184779        0.00188788152876
C           -0.89307096469393       -0.34666470382124        0.00035690665643
C           -2.31836409647653       -0.24204161265864        0.00033888125117
C           -2.21856359541663        1.23005098102517       -0.00013520506925
C           -3.52397263938006        1.68645896902142       -0.00011703473499
N           -4.36371509341452        0.63396324228028        0.00034623658980
C           -3.66891850504643       -0.52372491520624        0.00060426683084
H           -4.18840051083555       -1.46313408572629        0.00097435041236
H           -3.91654625442358        2.68554990034363       -0.00047134296999
C           -0.79496553612515        1.12755064560124       -0.00014692075018
N            0.18991340525664        1.97304105187046       -0.00038452589797
C            1.47303922664741        1.59187563394859       -0.00012704628209
N            2.30842320637615        2.64261601905726       -0.00041583433934
H            1.89323619384247        3.55910411863165       -0.00073753012305
H            3.30878837531091        2.53491099488757       -0.00025110813892
