22
 energy: -43.439873989210 gnorm: 0.000488650123 xtb: 6.6.1 (8d0f1dd)
N           -5.22132027149510       -1.21603185433761        0.00044359449856
C           -4.20581578416467       -0.68519687342251        0.00028615419464
C           -2.95385938682156       -0.01937074037267        0.00053959539264
C           -1.82682495821282       -0.81923560157801        0.00038029798717
C           -0.54045667310954       -0.27677549438603        0.00021936201808
C            0.81319384255063       -0.70719613932310       -0.00003502023624
C            1.26974809973715        0.65479428009707        0.00009141068058
C            2.65670531461247        0.66348835647444       -0.00003774177972
C            3.51888058701226        1.76701462239465        0.00009760469228
N            4.20858579253207        2.68414823190974       -0.00031249322288
C            3.06134030958699       -0.71382200287262       -0.00029637960763
C            1.94836472436907       -1.55854856084204       -0.00022899115446
C            1.95533263337256       -2.95861384961427       -0.00040210322270
N            1.92782979618956       -4.10595507713051       -0.00102880308396
H            4.08516690064213       -1.03999227539115       -0.00035317769037
C           -0.11724127507646        1.12035046496728        0.00026860846978
C           -0.83951799062081        2.28157931886737        0.00051629859570
N           -2.17507823117193        2.36731480599340        0.00070107001267
C           -3.05579402573424        1.42013940088436        0.00066091750734
H           -4.07848354185792        1.78886652005674        0.00077662430867
H           -0.33312837415182        3.23894903330108        0.00063394674044
H           -1.94232403638804       -1.89548895947559        0.00033004249939
