24
 energy: -47.693234437124 gnorm: 0.000725814597 xtb: 6.6.1 (8d0f1dd)
N           -5.57351998447565       -0.00019322217574       -0.00114972015499
C           -4.42785729783723       -0.00017004176783       -0.00074439230242
C           -3.00675802081957       -0.00012676551157       -0.00030180416731
C           -2.43006536713399       -1.28001142551357       -0.00024207042101
C           -1.08673237215826       -1.64721155178213        0.00001991122431
C           -0.75635299682368       -3.02386023448760       -0.00070569307921
N           -0.47029420218992       -4.13338561512608        0.00036403605477
C           -0.03472616001749       -0.72391701707979        0.00033506792726
C            1.39717335636930       -0.73417598039033        0.00034446721705
C            1.39712897524046        0.73419616472442        0.00045341981057
C            2.69945684679283        1.18004973493387        0.00011630943988
C            3.49944945069864        0.00007284278400       -0.00011852091283
C            4.90069205401663        0.00011345461644       -0.00066888216018
N            6.04859623836191        0.00015811202876       -0.00122808700309
C            2.69952744581298       -1.17995169782103        0.00005196476486
H            3.07826120258580       -2.18488443913721       -0.00007593625726
H            3.07813136824554        2.18500491323658        0.00001456403654
C           -0.03477059838092        0.72384918861429        0.00041340419670
C           -1.08683389198297        1.64707660510452        0.00025533331695
C           -0.75654800100852        3.02375579827206        0.00065405552603
N           -0.47055767159787        4.13335552871540        0.00022020221660
C           -2.43014196526840        1.27979306960637       -0.00008547521900
H           -3.14052201018388        2.10016968274479       -0.00021566953841
H           -3.14039596764574       -2.10043029428859       -0.00055454241576
