21
 energy: -38.125564561950 gnorm: 0.000563500668 xtb: 6.6.1 (8d0f1dd)
N            4.24433053490101        1.23992435058759        0.30626487475522
C            3.26279654223387        0.65657704420874        0.17934165674980
C            2.04290411343905       -0.03780403325820        0.02686555511213
C            2.17485846596326       -1.46662204053949       -0.01425357370004
C            1.25455739449959       -2.46621526973927       -0.03387024287387
C           -0.17304256255843       -2.37644130073456       -0.02467535373891
C           -0.81618479591803       -1.20754860371601       -0.15847773240668
C           -2.18435098947007       -0.63060612450170       -0.12990218489353
C           -1.65907497793684        0.66706475792823       -0.55028365073818
N           -2.61402802937497        1.60497824057074       -0.34395084580943
C           -3.59270197910042        0.89591159051745        0.17663846043340
N           -3.34907840101437       -0.44871004001790        0.41646757007488
H           -4.53105882436598        1.33332594200366        0.45848471758654
C           -0.36734166763257        0.16167820789311       -0.33792522244088
C            0.90319891959545        0.75500706419193       -0.08202719474002
N            0.94217485485108        2.10198841942625       -0.01061140383452
H            0.08903072847649        2.62253959452969       -0.12589896669374
H            1.80839277944664        2.58852220303323        0.14490859572467
H           -0.73570273462577       -3.28833172042570        0.10792774829606
H            1.64805198368979       -3.47386411674067       -0.02002623865885
H            3.21208990870115       -1.78216497571712        0.00960210409594
