24
 energy: -40.503897333030 gnorm: 0.000992418840 xtb: 6.6.1 (8d0f1dd)
N           -2.34470468202251       -2.74053297916836       -0.03651647337945
C           -2.11978881025439       -1.39292838136136        0.01589209625029
C           -0.88836796397440       -0.72576167084172        0.02297115478599
C           -1.15397940824207        0.72122308567498        0.01089701002341
C           -2.53881061213430        0.90933474161507       -0.01375466123347
N           -3.22684039939220        2.08836898178970        0.02588934733527
H           -2.70635451764100        2.91926930069670       -0.20072536910187
H           -4.19063652365789        2.07474962887298       -0.26359024606966
C           -3.10767128512663       -0.38560905991886       -0.00788530686209
H           -4.16668444836159       -0.57890188016994       -0.02114574316739
C            0.22554681545911        0.99696807457517        0.01831756646770
N            0.99354618514001        2.05695010104880        0.01488574366327
C            2.31791949099825        1.88922182108730        0.01950351972541
C            3.11070530707465        0.75744757375817        0.01753204687404
C            2.77908400366859       -0.62343886460530        0.01445060706349
N            1.58532782680019       -1.22624558112990        0.01943401218480
C            0.49569281800272       -0.49591183814583        0.02703626413018
N            3.81502229956169       -1.50069062796431        0.03515115049996
H            4.75879021895916       -1.19113718088852       -0.10896305623993
H            3.59564472816413       -2.47644676375263       -0.06157273738221
H            4.17875671545793        0.94823810924259        0.01747859585365
H            2.84971045454617        2.83694975363146        0.02031253260520
H           -3.25927466280129       -3.06567890246757        0.23041766818235
H           -1.57375701082433       -3.33293879987852        0.22330714549105
