27
 energy: -48.477538730078 gnorm: 0.000481122921 xtb: 6.6.1 (8d0f1dd)
N            0.84824124142654        3.74052167710601        0.05015318815234
C            1.03372653704982        2.60437112179598        0.02829505455075
C            1.23743589773890        1.21569602540983        0.00245366292537
C            0.13081211885116        0.39198161030520       -0.02431807553608
C           -1.27358399627400        0.47858752593666       -0.02792176966242
C           -1.38839870620219       -0.99692644622311       -0.02192990805440
C           -2.75996702406018       -1.25604373266186        0.00028800043639
N           -3.45079483023092       -0.08778716186574        0.00359539952766
C           -2.58538802082683        0.95693767538007       -0.01271680549565
N           -3.03213175541090        2.23525953367714       -0.07810892551851
H           -2.38541963333802        2.97347964948819        0.14139438792790
H           -4.00542437889357        2.38332889410150        0.12827340915320
N           -3.41569354146614       -2.44346780118102        0.08214602991953
H           -2.91552523310886       -3.26824077227466       -0.20165753849968
H           -4.40249352761154       -2.41195988619080       -0.11322417534678
C            0.01926612168937       -1.10981533321703       -0.02797577954224
N            0.88242385888453       -2.08093761846504       -0.03092201154700
C            2.20427691914172       -1.84648861737624       -0.03294292711004
N            2.92139765619977       -3.00398418799423       -0.09691173651861
H            2.40197519565553       -3.85719347252755        0.01378991937345
H            3.90739513860175       -3.00984353513492        0.09032044720790
C            2.93679576398489       -0.64855788467313       -0.01133996129326
C            2.56677337138852        0.69549962958668        0.00949138634829
N            3.56912016480042        1.61548285030781        0.07045649414802
H            3.34925338494816        2.59331705012302       -0.00735231151914
H            4.52568946715680        1.32873139025928       -0.02844877856786
H            4.01189336540554       -0.80293034079189       -0.00922465225891
