24
 energy: -46.897325219830 gnorm: 0.000722562653 xtb: 6.6.1 (8d0f1dd)
N           -5.22303776887452       -1.45319418037259        0.00030032543151
C           -4.21748989459247       -0.90144201855470        0.00043009854992
C           -2.97472884931489       -0.22646425671675        0.00017514639825
C           -3.05238339724188        1.16137996372893       -0.00013151869896
N           -2.14489552519991        2.13545147487765       -0.00050351336179
C           -0.83527763159543        2.04457215909881       -0.00049420052950
C           -0.09592156550433        0.81750784772944        0.00007025884992
C            1.25132173471388        0.40574978127330        0.00023977202986
C            0.85824910715194       -0.98056317430855        0.00040271764416
C            1.98322697439015       -1.76319365608921        0.00011774830702
C            2.09044046477126       -3.16056578715910       -0.00023970273161
N            2.17297043430023       -4.30504735552489        0.00000793014940
C            3.11369563579207       -0.84721738950323       -0.00007216649361
C            2.67630279838880        0.46722332834160       -0.00002028286339
C            3.42667194317354        1.64710786769873       -0.00031564433605
N            3.96100144587549        2.66387059069085       -0.00033886742586
H            4.13921747895909       -1.16752934858073       -0.00031254009008
C           -0.57195741221250       -0.55094675249793        0.00033329122716
C           -1.81682216023398       -1.06809669634360        0.00034078944626
H           -1.96986165450898       -2.13792261982237        0.00052084841917
N           -0.13998763316541        3.19514888424341       -0.00107358480895
H            0.86583370689414        3.19992563395446       -0.00101395277711
H           -0.64470227251911        4.06501564871986       -0.00148619243182
H           -4.06082844954720        1.56775490591665       -0.00015164520391
