25
 energy: -45.036357430010 gnorm: 0.000959528011 xtb: 6.6.1 (8d0f1dd)
N           -5.13099334751315       -0.37186587645200       -0.04121396733133
C           -3.98431808310629       -0.25282768972716       -0.02843847384295
C           -2.60079744775812       -0.11879517321903       -0.01066559707107
C           -1.90458134969382        1.12624225024756       -0.02624518511083
C           -0.54599641830121        0.79092054813113        0.00622317876250
C           -0.41776489517751       -0.67382977650869        0.03772306200017
C           -1.68635097783693       -1.23188391007543        0.02938571786177
N           -2.06954984308471       -2.53518029335672       -0.00383989814683
H           -1.39670742745436       -3.24116577204573        0.23669051604242
H           -3.04002636946298       -2.74523138873906        0.15970534379845
C            0.99884488027973       -0.56647523042144        0.04368419421268
C            2.13596722793043       -1.31978409208052        0.03466424990066
C            3.41070024334100       -0.70534713681083        0.00172218074593
N            3.75020663351005        0.58830997324341        0.02134067471408
C            3.01337840479981        1.67403072004482        0.03971467523992
N            1.71137495078422        1.92289412243797        0.01595083315568
C            0.85075090572839        0.93330104728913        0.01652193597502
H            3.61407318767627        2.58224946837648        0.06915268028385
N            4.49696332103931       -1.51370441036083       -0.03683089537141
H            5.40100626711397       -1.07920710077655       -0.09726221533453
H            4.41175769659802       -2.51044175862632       -0.11428561947642
H            2.08824504040385       -2.40170342007226        0.03535776324481
N           -2.47619982413850        2.35040598909535       -0.02065565588763
H           -3.46617528441407        2.43303175735566       -0.17568993253469
H           -1.89497226736327        3.15679764605107       -0.16314103643028
