22
 energy: -37.874023607302 gnorm: 0.000493231330 xtb: 6.6.1 (8d0f1dd)
N            5.43376536311198        0.41474068053435       -0.00035037855449
C            4.29108357719345        0.28527811915716       -0.00005427423000
C            2.90227406990782        0.12600251973624       -0.00005359695697
C            2.24096710906584       -1.13791545010445        0.00008226950599
C            0.89838317635705       -0.84547967330885        0.00021906995548
C            0.72869544688317        0.60459896815934        0.00015970600440
C            1.97217143216828        1.20024206154917       -0.00002135349810
H            2.23355292187437        2.24205475508549       -0.00008086579886
C           -0.69306681793955        0.43779307894016        0.00044872613743
N           -1.71305248143438        1.25138797583127        0.00067611361360
C           -2.97635125715299        0.80218769590268        0.00099310524825
C           -3.48793768041634       -0.52433617961881        0.00111587565764
C           -2.83909161444620       -1.74178343371683        0.00100317449245
C           -1.46899525352242       -2.02401725734652        0.00072852161546
C           -0.52904920487371       -1.02395771292852        0.00048590120894
H           -1.15290544416384       -3.05741121300364        0.00070880175051
H           -3.49200258584076       -2.60693411457118        0.00115905505653
H           -4.57063246312650       -0.56950125333092        0.00135016714604
N           -3.87421297111430        1.80294504785167        0.00121262820659
H           -4.86404078467173        1.63383081540596        0.00153043333314
H           -3.52390042706071        2.74592884972370        0.00116987273837
H            2.73814834650147       -2.09046868744752        0.00012261416757
