24
 energy: -42.107383412580 gnorm: 0.000460988242 xtb: 6.6.1 (8d0f1dd)
N           -1.65520469592340       -3.91003045323472        0.00194988262663
C           -1.70362882341266       -2.76121237595912       -0.00381601292724
C           -1.64597922632503       -1.36625856104023       -0.00625399342899
C           -0.45620579726291       -0.59824785451416       -0.00648719352185
C           -0.80716292825234        0.78624822248269       -0.00182354768515
C           -2.18543766616632        0.89923440198554        0.00005331527256
C           -2.96635239179138        2.06019489071330        0.00499797598174
N           -3.59606752747848        3.02058099354945        0.01036166351449
C           -2.69637218660743       -0.44528098259590       -0.00252140561342
H           -3.74183243699662       -0.69274775745109       -0.00113954041322
C            0.63729675178544        1.13897284229570       -0.00236265242030
C            1.42831243253105        2.24414519596986        0.00347751905935
C            2.83532277681353        2.17514479114853        0.00319515162975
C            3.65545914491678        1.06615278365423       -0.00049499610083
C            3.37509498832326       -0.30852230017965       -0.00508900157558
C            2.15454042516972       -0.97574576126264       -0.01074715777325
C            0.93516698745073       -0.26895803155612       -0.00866256182177
N            2.09547562190968       -2.33265975902009       -0.04410525374066
H            2.93000330082748       -2.88390237682835        0.03982795139240
H            1.20663918422601       -2.79670126489544        0.02869640428472
H            4.24732284297198       -0.95266759065256       -0.00577254670030
H            4.71567666192999        1.28885186451517        0.00142180877258
H            3.34297563297695        3.13114439926414        0.00723033749610
H            0.96527298578363        3.22065403901149        0.00853417209220
