26
 energy: -44.753870429254 gnorm: 0.000760628130 xtb: 6.6.1 (8d0f1dd)
N            5.13840115174535        0.40243131944619       -0.01765341923322
C            3.99219203655259        0.27423574631129       -0.01215764309320
C            2.61190494528197        0.12416233258216       -0.00478404709502
C            1.67804923274702        1.22226412001523        0.02409764709237
C            0.42199855112439        0.64166103449556        0.01848678851736
C            0.57124749490339       -0.81632616900784       -0.00518329084420
C            1.93163680354328       -1.13023245745548       -0.02387996310385
N            2.53690295077564       -2.34752887089019        0.00565219048466
H            1.99123947158480       -3.15784162835304       -0.22976659274340
H            3.52407906120053       -2.38560410338719       -0.18736666277827
C           -0.83369750101370       -0.97825108813250        0.00541581980169
C           -1.79411081452249       -1.96557110257985        0.01808396633396
C           -3.15825450960489       -1.68641851050027        0.04249379500383
N           -3.84304539791371       -0.56054641461108        0.02609371144779
C           -3.43055437610413        0.70505463905766        0.00594656285872
C           -2.12828486602037        1.26307430064201        0.02258153960910
C           -0.99841258433626        0.50094720535928        0.02357042658381
H           -2.04850346571871        2.34304987431008        0.02513627413829
N           -4.47308871637474        1.57818064744941        0.00065148575798
H           -4.32999580904357        2.55948494423928       -0.15338640697925
H           -5.39632996476050        1.19232323741910       -0.09272598234413
H           -3.81987698944760       -2.55050184302779        0.07025377433106
H           -1.48956604095027       -3.00393238225027        0.01776193682169
N            2.04109437304577        2.53425782870019       -0.01130202098497
H            3.00394185431530        2.75394224805909        0.18475687746499
H            1.35632454949083        3.22275059890897        0.24821756505219
