24
 energy: -41.295710798920 gnorm: 0.000722395360 xtb: 6.6.1 (8d0f1dd)
N            4.39616559601055        2.07400646773930       -0.06173773333691
C            3.65448244167675        1.19670547456135       -0.03276387951888
C            2.75358455797290        0.12894707480656        0.00170674119313
C            1.38966579812826        0.14086106803121        0.02428266055065
C            0.91066542114834       -1.22424519479052        0.04641851708667
C            2.03201766881816       -2.09321104572435        0.04428712052239
C            3.13848686830644       -1.28701019348436        0.01858972807863
H            4.16326780619521       -1.61096530350210        0.00916802964267
H            2.03563027199605       -3.16813898921793        0.06210351841375
C           -0.42239623744440       -0.77168817721934        0.03355577741583
C           -1.73248417750448       -1.33620709836683        0.00892371438513
N           -1.81976076550540       -2.69611525889992        0.05710014128148
H           -0.98072587117025       -3.22582867755879       -0.10327255066710
H           -2.69753287153701       -3.14472244509446       -0.13930096523367
C           -2.84920875174691       -0.54199070302925       -0.01771253811649
C           -2.96549070660581        0.89594547373517       -0.01387999743982
N           -2.08821599007345        1.86143545504469       -0.00437340620420
C           -0.74214581151957        1.76444470416711       -0.00596754762301
C           -0.02645061001033        0.61919759457092        0.01643906055513
H           -0.24063010692267        2.72459484449418       -0.01721727555966
N           -4.25726258293957        1.34736342294120       -0.08573541209729
H           -4.37613900815014        2.33931230440347        0.03014609195759
H           -5.01948036982707        0.75112760173626        0.18231531721498
H           -3.80096621009638       -1.06129446712689       -0.04630340750014
