24
 energy: -46.110923116682 gnorm: 0.000422644403 xtb: 6.6.1 (8d0f1dd)
N            4.61779994582962        0.30839153277873       -0.00145256973700
C            3.46678711487952        0.29545386163478       -0.00008011987555
C            2.05705811914412        0.28581325674299       -0.00003226408947
C            1.47278108013947        1.59211209101708       -0.00019772225741
N            0.18965827563766        1.97311066701062       -0.00009243162785
C           -0.79516132040611        1.12749309222153        0.00030478036707
C           -2.21873027124035        1.23006206914799        0.00055011201753
C           -2.31850353884092       -0.24222725512265        0.00113308896628
C           -3.66905776528408       -0.52377555882225        0.00169719411695
N           -4.36387812041689        0.63388781702691        0.00156338901899
C           -3.52416840731997        1.68634968729751        0.00084619091687
H           -3.91678505356123        2.68543146624233        0.00064321100315
H           -4.18857467844868       -1.46317939534433        0.00225844305777
C           -0.89313649812376       -0.34656774344948        0.00081350316872
C            0.08221779378912       -1.31716273558247        0.00091987795058
C           -0.29694883835778       -2.67536988661755        0.00136270275632
N           -0.57837832756861       -3.78905586962391        0.00204352202472
C            1.47919095291900       -1.00864762235699        0.00049393040364
N            2.31742712386381       -2.06054806766498        0.00064909104455
H            3.31525971671468       -1.92611518088087        0.00036458831773
H            1.94672438552041       -2.99705827769963        0.00103771220355
N            2.30811577205913        2.64289539344039       -0.00046387313967
H            3.30846324039359        2.53502409813131       -0.00062507814827
H            1.89283268427826        3.55932788427289       -0.00058853535921
