21
 energy: -37.320426072710 gnorm: 0.000740141037 xtb: 6.6.1 (8d0f1dd)
N           -4.26742674061997       -0.19304137100701        0.30127654512112
C           -2.95830302641313       -0.13888590171820       -0.05489166659987
N           -2.26274521197836        1.05193243161822        0.22088687569689
C           -1.07700729351602        0.83928444001928       -0.24016298601940
C           -0.88177140431461       -0.56409970269694       -0.65180220936231
C           -2.14976357165318       -1.16243121723707       -0.53765837019068
H           -2.46622121240674       -2.15254623792505       -0.79978578971688
C            0.47522239594238       -0.38646213373238       -0.39293077108324
C            1.61183959221948       -1.18856626053116        0.04243456987489
N            2.81562009038215       -0.73120477785051        0.13601382814112
C            3.23291421062398        0.54629062153135       -0.11171909300115
N            2.68244921281494        1.69884190936687       -0.05175819762540
C            1.34269393952914        1.96059151302783        0.08946412590001
C            0.39039249953416        1.05369470365572       -0.17236948715997
H            1.11135187577800        2.99128567990558        0.31842555816757
H            4.30256478101794        0.56843896327935       -0.31110264956582
N            1.36802483595180       -2.47262241826369        0.36885043379951
H            0.43639949356563       -2.84202059549842        0.31069668198112
H            2.11224074443332       -3.03061150464418        0.74963742057806
H           -4.84738180114911       -0.90238328663300       -0.11245542315312
H           -4.69729638614215        0.69152913263358        0.51220740571747
