28
 energy: -48.984585586332 gnorm: 0.000796572302 xtb: 6.6.1 (8d0f1dd)
N           -4.43297772395008       -2.41314174324059       -0.01231600722071
C           -3.64441051090311       -1.57604711702666       -0.00561886223740
C           -2.66319198469547       -0.56496718338865        0.00252708101979
C           -1.34074636758056       -0.99137198919266        0.00075051495462
C           -0.26395695305948       -0.05679854507037        0.00197180709145
C            1.13138184641033       -0.14643629115852       -0.01099456750831
C            1.25557717522642        1.29869839128638        0.01989159316174
C            2.55980327194536        1.64467012474272        0.04929292848920
C            3.31258033608164        0.39109390020439        0.02891306612503
C            2.44150398945480       -0.70600081572895       -0.00728271032383
C            2.77008090704803       -2.05513373905625       -0.01974541849174
N            2.99427391037403       -3.18565479313626       -0.01984052163565
N            4.66971602831380        0.33737262030576       -0.01493713562544
H            5.19355662588955        1.15419182852384        0.24708767247094
H            5.11265703805202       -0.55503089519829        0.12754112369971
H            3.02651063029396        2.61291872920962        0.08319580354658
C           -0.24351255102618        1.39397552944454        0.02240744530205
C           -1.20559528406118        2.34283937551792        0.03931162511073
N           -0.88790568296582        3.69060675436854        0.14549992958076
H           -1.56523101203235        4.33374702148978       -0.23337164122088
H            0.06659451302445        3.91866261396736       -0.08455781536857
C           -2.60270822042854        1.99093417027551        0.02849677425660
C           -3.19260949451184        0.77340823924693        0.01130025587839
H           -4.27724318850881        0.78018998499959        0.00509696569980
H           -3.27078172560878        2.84359275039124        0.03935960648215
N           -1.00874108045040       -2.30155104679106       -0.00829693038290
H           -1.72082897707617       -3.01143994799113       -0.00345009123930
H           -0.04071443755563       -2.57351117919452       -0.00586698031487
