26
 energy: -45.551928960783 gnorm: 0.000373424280 xtb: 6.6.1 (8d0f1dd)
N           -4.79833243030160       -1.55888409105090       -0.00105323359695
C           -3.68518777714584       -1.26966505315898       -0.00220610218802
C           -2.31850114382170       -0.91382429095885       -0.00256393725775
C           -1.45999787738688       -2.01970621306480       -0.00729319146352
C           -0.07752520259331       -2.10053860108296       -0.00483059191641
C            0.74267204979376       -0.99242655791877        0.00018057237307
C            2.12688849313242       -0.67306423766924        0.00417372392889
C            1.79696558560285        0.76003073065079       -0.00661861636248
C            2.97885659968765        1.48286314978036       -0.01129995393410
C            4.01337344087407        0.53758941069917       -0.00015123440228
C            3.51389981191198       -0.79634527095842        0.01248681216387
N            4.27641116127898       -1.92782141891941       -0.03164526546303
H            5.25071683135272       -1.83707737228239        0.20343784785333
H            3.83933152488930       -2.79711650623497        0.22319125323702
H            5.06190810899149        0.77825206337569       -0.00036749602446
H            3.10863582967761        2.54945548141155       -0.02103024664625
C            0.41517162587543        0.44465153258729       -0.00385036662698
C           -0.79708880631576        1.12162524389799        0.00060967887874
C           -0.75980253720575        2.52991180018081        0.00420105639664
N           -0.75176260831830        3.67953215257832        0.00875162405979
C           -2.06849959788505        0.49319855906420        0.00237818329542
N           -3.14815759689304        1.30342673356506        0.00863160845240
H           -4.07780094584818        0.91807257957582        0.00724833158627
H           -3.02594582763494        2.30249772882808        0.00970458502954
H            0.37355347433591       -3.08306422462226       -0.00856115871675
H           -1.98383526235381       -2.96996889037314       -0.01193902815598
