22
 energy: -37.037357146550 gnorm: 0.000603189591 xtb: 6.6.1 (8d0f1dd)
N           -4.37208626413538       -0.01543834823999       -0.02900886216200
C           -3.01404609791664       -0.06838630358453        0.01611387315359
N           -2.31777645283637        1.15936380199751       -0.00020415756275
C           -1.08020526212586        0.79246421560456       -0.01028564904481
C           -0.89165784755999       -0.65584189330010        0.00200919037559
C           -2.19090061750306       -1.19036425189438        0.02098600663844
H           -2.51823193564483       -2.21150377911113        0.03392195337764
C            0.49408206973777       -0.46437338345009        0.01101331745738
C            1.67154428570692       -1.28915227332325        0.01873704615879
N            1.46591730967944       -2.63499568820622        0.06959124450290
H            2.23674250347823       -3.26163450711990       -0.08214987643694
H            0.53756352792752       -2.97916108743471       -0.10347634125553
C            2.92148135028877       -0.73500865034842        0.01565516284778
C            3.30837702800485        0.65582966573206        0.01886722595588
N            2.67939438106240        1.77287760918407        0.00497338051243
C            1.32271678423668        1.96248054234476       -0.01380823727446
C            0.40079998462676        0.98535864800716       -0.00772784619779
H            1.03222660925257        3.00439607057350       -0.02886559615540
H            4.38914060687787        0.78832088275844        0.03115228650517
H            3.75569094503902       -1.42697047918496        0.01701796610891
H           -4.77508054505154        0.88424626439472        0.17274396158692
H           -4.88763759444524       -0.82452914019911        0.27275805910825
