25
 energy: -40.219284759908 gnorm: 0.000531273512 xtb: 6.6.1 (8d0f1dd)
N            3.99223497010238        1.43571894850894        0.03296527665284
C            2.89261144965760        0.62133294251672        0.01199453055302
C            3.15348686594963       -0.76955069489835        0.02838502231245
C            2.31521938920559       -1.86752324670609        0.04159915044281
N            0.98800951802041       -1.99755193073922        0.03560779318020
C            0.21650849539412       -0.94381056805923        0.03595959118339
C           -1.17361973995014       -0.70016835148659        0.02253092882445
C           -0.93581664685237        0.74369510089499        0.03819055638802
C           -2.17621469764070        1.38751668024048        0.01720826655818
N           -2.43496217254891        2.73655109234277       -0.03678355116016
H           -1.70010205512775        3.34046012056699        0.29419898022827
H           -3.36439785195120        3.01829407136965        0.23234666598565
C           -3.14896799266858        0.36386060192608       -0.02221508217375
C           -2.55474472904228       -0.91803708486435       -0.02289893312227
N           -3.21829177529095       -2.11374970309910        0.00496762233221
H           -2.67254714010706       -2.92743337504499       -0.22582689539363
H           -4.17215948901022       -2.11815763461139       -0.31769039675956
H           -4.21065783729459        0.54043356521942       -0.04985478619639
C            0.46434167813483        0.53867461193667        0.04379621800457
C            1.63803920259310        1.24728685840611        0.02132184121331
H            1.61293311335966        2.33086069316244        0.00612908056029
H            2.81333421077132       -2.83376364755059        0.04934393664783
H            4.21100738940241       -1.01382307742372        0.02741312440947
H            4.89634302475277        1.03932428985105       -0.15584399793287
H            3.87341687014085        2.41507431404139       -0.15854753433846
