24
 energy: -40.513337443941 gnorm: 0.000699107982 xtb: 6.6.1 (8d0f1dd)
N           -2.61015441191202       -2.62013999416487       -0.05258211697955
C           -1.95630921795720       -1.43160723310919       -0.02272838975256
N           -0.61709919698376       -1.59424882302199       -0.02366225703593
C            0.15504438993459       -0.54192673042498       -0.01787041328998
C            1.54890731689555       -0.29794982642854       -0.00965859820367
C            1.31018278496481        1.15429608337997       -0.00573616759553
C            2.53796648504922        1.79430553530011       -0.00216576625508
C            3.50730938707942        0.78083505498724       -0.00593777478346
C            2.92231917136357       -0.51254606529916       -0.01115559711839
N            3.60584847274151       -1.70512384902459        0.05352794036858
H            3.08498063455982       -2.51775863913159       -0.23563795442387
H            4.56225950595267       -1.68234645989313       -0.26383983887674
H            4.57063561233012        0.95263091436539       -0.00553135909127
H            2.74364314212737        2.84938523255623        0.00007431229528
C           -0.08889109209295        0.93610995286207       -0.01410733739701
N           -1.16503840873961        1.67804828952157       -0.01497352272939
C           -2.37466605410424        1.09190219072062       -0.01779195303393
N           -3.38115676015609        2.00016308268589       -0.04146015618744
H           -3.12605969698890        2.96919504019127        0.02769120384313
H           -4.34130810498246        1.72671928721965        0.05698254555751
C           -2.73250469051972       -0.26669512642967       -0.01503978642249
H           -3.80344112538877       -0.44465143775787       -0.01427022725590
H           -2.05344770574505       -3.45218669730868        0.02731881510202
H           -3.60534343432796       -2.67410768249579        0.06226387746564
