21
 energy: -38.921728821637 gnorm: 0.000371226967 xtb: 6.6.1 (8d0f1dd)
N           -4.22643310882997       -2.34319566948439        0.00005919841080
C           -3.41678298841439       -1.53189808832098        0.00026000676755
C           -2.42737825815177       -0.51687896037724        0.00001893004176
C           -2.97142694829115        0.82843513115610       -0.00025112170694
N           -2.42927126763557        1.99710467256472       -0.00065842325104
C           -1.12546401016696        2.32751104401000       -0.00093139193504
C           -0.08317432933106        1.45066500765240       -0.00048916392580
C            1.38412166384152        1.43620051480230       -0.00028461175631
C            1.35701855228108       -0.01098875698263       -0.00011071506094
C            2.70264991167904       -0.47043843887219       -0.00021287928963
C            3.14499572318561       -1.79662100559024       -0.00015663688054
N            3.48393953304859       -2.89391659101350       -0.00083807713102
C            3.49109244857932        0.68252236641518       -0.00018051876952
C            2.68482653323229        1.86397472443404       -0.00050709102235
H            3.07222583791496        2.86608088486994       -0.00046415202280
H            4.56597474097255        0.68277441060110       -0.00008707634232
C           -0.05026327040018       -0.01150684466768       -0.00003272244914
C           -1.11470362154571       -0.92754001499001        0.00015707337262
H           -0.88981570848074       -1.98659579387239        0.00037457969581
H           -0.94472184279018        3.39511556675795       -0.00112444747521
H           -4.05827036299730        0.85840788010751       -0.00015074146990
