24
 energy: -40.521275667544 gnorm: 0.000571377124 xtb: 6.6.1 (8d0f1dd)
N            3.55882316048804        1.80082610867521        0.01676521853797
C            2.44087227047142        1.03081005675453        0.00735223831120
C            1.19639623445004        1.69596522316999        0.01944694419811
C            0.02358565506204        0.99228090163623        0.01819103088221
C           -1.38909321774766        1.17947357321422        0.01572136920983
C           -1.59531202577963       -0.27485758290173        0.00199484901224
C           -2.96718850597296       -0.52022594092915        0.00328225010975
N           -3.62057187339296       -1.72910157381961       -0.07861731355551
H           -4.57728466759073       -1.73447713146462        0.23846141918381
H           -3.07924221547155       -2.53149520464434        0.20135754571974
C           -3.57785538624735        0.75624478856206        0.01803245665921
C           -2.62531742851971        1.79277373530318        0.02538751832067
H           -2.85635010333039        2.84319126487604        0.03970918966042
H           -4.64379622101160        0.90929723973993        0.02370504673952
C           -0.19678860549940       -0.47970534836836        0.00861381857402
N            0.60409543033304       -1.51195303871674        0.01578019990700
C            1.93711233378129       -1.33451579825021        0.02055020332092
N            2.72789480376363       -0.27055355268009        0.00637404177466
N            2.61597171072723       -2.50238383464649        0.04198530304884
H            2.09964592951085       -3.36231381943977        0.01604375858367
H            3.61872899073625       -2.49193094648576        0.01563697497747
H            1.19153833697830        2.77799766288100        0.02337666652813
H            3.50044201185728        2.79693455411861       -0.08719521893146
H            4.44834460070448        1.34166381421580       -0.06364394687239
