20
 energy: -34.405799163355 gnorm: 0.000199697745 xtb: 6.6.1 (8d0f1dd)
N           -4.31428023211826       -1.61226969114372       -0.00192831102027
C           -3.33834904017310       -1.01132438936943       -0.00132889323489
C           -2.13494203218089       -0.25696223721435       -0.00059908477822
C           -2.34510868859832        1.16524714743687       -0.00010297251283
C           -1.45155502233739        2.19383429587626        0.00096016614786
C           -0.02819629821166        2.16753400388318        0.00193043193120
C            0.68781400407104        1.02148552676163        0.00168963803782
C            2.10261898368238        0.59560642725905        0.00257419320479
C            1.65131368537382       -0.78623504069532        0.00096486960456
N            2.68724594670943       -1.65761287825937        0.00136890101919
C            3.74798802959921       -0.87602604984234        0.00319064559593
C            3.46038529973908        0.54996140457585        0.00408940666561
H            4.19777037229018        1.32961931795211        0.00566899046689
H            4.73323474645081       -1.30678988890201        0.00388756997367
C            0.30454347693934       -0.38833590812034        0.00045378930206
C           -0.97073116138339       -0.98314989212694       -0.00042830396408
H           -1.02651622254541       -2.06396592843045       -0.00099198374329
H            0.48830274850493        3.11651849377732        0.00297100844720
H           -1.88418351771975        3.18701922746758        0.00127754952869
H           -3.39303474689202        1.44168356331443       -0.00059068187187
