24
 energy: -41.309258297696 gnorm: 0.000719465001 xtb: 6.6.1 (8d0f1dd)
N           -1.76140021330015       -3.34431938298154        0.00879070722334
C           -1.83095827957333       -2.19746183745077        0.01071985143587
C           -1.84931067536256       -0.78715774881525        0.01038626666202
C           -0.62070237467451       -0.14993457971432        0.01199090993796
C            0.75193397692510       -0.47807446294008        0.01433986019659
C            1.11079675947695        0.93795040045645       -0.00158976892625
C            2.51563901445624        0.96043230803563       -0.01561763766033
N            3.00204248987339       -0.30562891631119       -0.00838204081639
C            1.96641686045185       -1.18343882735685        0.00818299585376
N            2.17364799654913       -2.50830359644108        0.04632988073360
H            1.39649898774478       -3.14031316716885       -0.02859725709653
H            3.11348527929684       -2.85253384556820       -0.04157302151788
N            3.35726579452233        2.01171279292661       -0.07881568002067
H            3.01274581663739        2.93686749466982        0.10274154353113
H            4.33802840564350        1.82534102978980        0.03904964339765
C           -0.26491336157375        1.29959611997441       -0.00180132478849
C           -1.06891135780661        2.41106792036646       -0.01047857185829
C           -2.46084201304160        2.35660937645491       -0.00824665123590
C           -3.32079888751959        1.25707435866181       -0.00240575408304
C           -3.07939185137946       -0.10772713256190        0.00361982625622
H           -3.95618279913982       -0.74489702092778        0.00314837618213
H           -4.37286228348342        1.51866657052940       -0.00462806069861
H           -2.95937571354643        3.31877442642857       -0.01357567205362
H           -0.60190666577289        3.38813587373531       -0.02004391645640
