26
 energy: -44.757747545802 gnorm: 0.000777180846 xtb: 6.6.1 (8d0f1dd)
N            5.08155108685012        0.45688838499608        0.00944798374147
C            3.93697902570753        0.31501561180077        0.00486015290371
C            2.55910840389057        0.14062203120611       -0.00025936612417
C            1.90624192478132       -1.13804345364047        0.01295929134057
C            0.54479371384906       -0.86337583304825        0.00369793804299
C            0.35660858897393        0.59223389085890       -0.01073084303555
C            1.60554463273916        1.20894889710876       -0.01624135474995
N            1.91351479839530        2.52946482625446        0.02236566970212
H            2.86421717041401        2.80381853715047       -0.16043178580261
H            1.18594350418552        3.19204134084010       -0.18038497364203
C           -1.04603638605045        0.42333794369746       -0.01429068414026
N           -2.07733503069835        1.22127460077246       -0.01481171308367
C           -3.33116666798072        0.75395114118625       -0.01479824447778
C           -3.82305212932955       -0.57370999137215       -0.02122814579272
C           -3.16868277595677       -1.79046228069763       -0.02055719520072
C           -1.79749973009051       -2.06537774009252       -0.01020718418508
C           -0.86133922440640       -1.06565226874392       -0.00388290644985
H           -1.48247028356360       -3.10082697455494       -0.00890421235757
H           -3.81799846993160       -2.65850886862732       -0.02632802382997
H           -4.90606344534082       -0.62977264704649       -0.02832281609277
N           -4.25517246622166        1.75002558088009       -0.03955908812208
H           -3.92055076446228        2.69275642942431        0.05373207589019
H           -5.23107227725845        1.55834164662591        0.09361718698391
N            2.55333667325462       -2.33493782301261       -0.03031795662168
H            2.03680693872601       -3.16277000820793        0.21020388249443
H            3.54054584282382       -2.33804391165799        0.16734818790907
