22
 energy: -37.853111000673 gnorm: 0.000202541865 xtb: 6.6.1 (8d0f1dd)
N            3.65424384784365        1.99030272175203       -0.00068453607197
C            3.09881748223047        0.98283078418539        0.00009809906579
C            2.32874680230594       -0.17988862865171        0.00015831123168
C            0.90501365183329       -0.21861282495989        0.00007398334635
C            0.49729692783595       -1.60557693816201        0.00041177442347
C            1.60205527867709       -2.39821212545083        0.00071875610132
C            2.73582427497522       -1.51013582600513        0.00051264885960
H            3.75958698532646       -1.83804248966881        0.00070362823881
H            1.67575382575652       -3.47026896337259        0.00107875341729
C           -0.92710762554360       -1.15380319767164        0.00036418183146
C           -2.18497784620990       -1.65276964153867        0.00056920187845
N           -3.32410679830040       -0.92439579619986        0.00046885885854
C           -3.43817639286217        0.36528904358054        0.00025161286493
C           -2.52286701009171        1.45549706492066        0.00006539948785
C           -1.14180283507920        1.44289846548344       -0.00003158328417
C           -0.43251151533057        0.20726015039163        0.00006362027239
N           -0.40786535656492        2.57990216272673       -0.00027354936510
H            0.59646281069057        2.53372508012897       -0.00019112504736
H           -0.85186071792786        3.48013520159502       -0.00015443607837
H           -2.98873745803180        2.43388073595295       -0.00001730471498
H           -4.47994265482658        0.68010546107328        0.00022744820012
H           -2.35307616320649       -2.72284339540949        0.00082305688390
