22
 energy: -37.871288623214 gnorm: 0.000731679850 xtb: 6.6.1 (8d0f1dd)
N           -5.49967065417542       -0.35187343192126        0.00234620734498
C           -4.35561767952743       -0.23521692148780        0.00170033571440
C           -2.96493117920801       -0.09842292497555        0.00092436374744
C           -2.05250638409557       -1.20369716634667        0.00084309719617
C           -0.80483484005174       -0.64004618055935       -0.00013241885691
C           -0.93540471274241        0.81215948071290       -0.00067174511392
C           -2.27903436942055        1.13958766949079       -0.00000767936295
H           -2.74872234387576        2.10573939967102       -0.00015644376638
C            0.48727356755572        0.94721309516604       -0.00173981958959
C            1.45782275873243        1.93095938680458       -0.00295836121323
C            2.81767121340940        1.63696614700646       -0.00388553221284
N            3.49408242502510        0.50639099930537       -0.00392122570029
C            3.06276442147587       -0.75850131690369       -0.00302156841404
C            1.74781456007647       -1.29506143823128       -0.00172251010935
C            0.63600018196046       -0.50750951277695       -0.00119204758316
H            1.64301119157240       -2.37139741956672       -0.00119627758325
N            4.08304649686935       -1.63687524282583       -0.00345808818576
H            3.92906700885634       -2.62917790491866       -0.00305712043505
H            5.02016591493255       -1.27152208670993       -0.00447939182864
H            3.48822072507609        2.49448663533418       -0.00480847723191
H            1.15899813059602        2.96946082791861       -0.00323283494498
H           -2.34538497984137       -2.23751111328629        0.00142318732923
