29
 energy: -52.700384343589 gnorm: 0.000805011533 xtb: 6.6.1 (8d0f1dd)
N           -4.87239063430129       -1.69218233089079       -0.05592554204977
C           -3.90445016496264       -1.06716949488513       -0.05366178532951
C           -2.69615814512950       -0.34654492071148       -0.03014319713998
C           -1.55489595440663       -1.13775179674429        0.01304147142396
C           -0.24771632705774       -0.57997201370272        0.05597077783801
C            1.05862921347780       -1.08555966693754        0.09476413527948
C            1.61470515117804        0.25122116987771        0.09098400981990
C            2.96313570873134        0.10803642597816        0.07065228576815
C            4.00535893899826        1.02756262837883        0.02462408076705
N            4.88010572530890        1.77306508165658       -0.03146404355527
C            3.14656199759071       -1.38610802756865        0.07720315469493
N            2.01619146127557       -2.05678291625612        0.08463918389612
N            4.36420928211439       -1.96352082267322        0.11754980528456
H            5.17818741671523       -1.40744507084967       -0.07824412162531
H            4.41650319851671       -2.95890155293175       -0.00962149691570
C            0.21008888179023        0.79506315640143        0.06301051140397
C           -0.42486439517322        1.98527153337918        0.05215198553866
N            0.27634329476123        3.17562149678708        0.16692382042579
H           -0.15784398224867        3.98993431947596       -0.23691155092658
H            1.26684351635446        3.10838970345349       -0.00950186543990
C           -1.85800833188628        2.07218193849306        0.00285702432131
C           -2.82349532695325        1.10675758333127       -0.04328903631227
N           -4.12937723769761        1.53911708776385       -0.17853520731082
H           -4.86976519866700        0.89759268171522        0.05357200341056
H           -4.31481283742910        2.50689709335401        0.02219705157087
H           -2.23049137975826        3.09021854321225       -0.00622432072186
N           -1.61583253274949       -2.48756306831395        0.01982393095126
H           -2.49628731935361       -2.97187156792532       -0.00307044689601
H           -0.75510556503854       -3.00564164616835        0.05934980092922
