26
 energy: -50.343423567737 gnorm: 0.000617112855 xtb: 6.6.1 (8d0f1dd)
N           -4.57710766791647       -2.80386795897095        0.00159193543600
C           -3.87090592369127       -1.89904398131279        0.00030779850881
C           -3.00747350275211       -0.79626422854555       -0.00079352111595
C           -1.63994635095171       -0.76530278267562       -0.00231970942174
C           -1.20276717548947        0.60532614265652       -0.00223238429485
C           -2.35760486351662        1.44704130049535       -0.00140888573892
C           -2.31837401186292        2.84359079092882       -0.00131293749726
N           -2.17972068291842        3.98439488486121       -0.00110936230599
C           -3.44734991361172        0.59595180332212       -0.00061961123006
H           -4.47965444460706        0.89321520410471        0.00011191224754
C            0.14816237168670        0.20555924273989       -0.00180106729403
C            1.41725291125875        0.85174244215128       -0.00003022941984
N            1.42182041623985        2.19876873575392        0.00152758636514
H            0.55285975250029        2.70655609103431        0.00122385164701
H            2.28635121485498        2.71353712400214        0.00298943551352
C            2.59411838049746        0.10695701070329        0.00030745940014
C            3.78589923068740        0.85624096270572        0.00257347948172
N            4.74949200766253        1.48528310078233        0.00430653738327
C            2.76505798686909       -1.34916936788165       -0.00161775757220
N            1.91187598696769       -2.33390489676529       -0.00209637500195
C            0.56711570340784       -2.30770326318751       -0.00184762203742
C           -0.19928934694817       -1.19538100193502       -0.00210436595816
H            0.11465348758517       -3.29133326651985       -0.00162837219420
N            4.05554751415377       -1.76243694066906       -0.00280440171723
H            4.21938093152091       -2.75351221911221       -0.00385666716523
H            4.82860906987356       -1.12139070286611       -0.00237561781808
