22
 energy: -37.040724905833 gnorm: 0.000606198834 xtb: 6.6.1 (8d0f1dd)
N           -3.97832396115281       -0.42794497973600       -0.17582488758668
C           -2.61591467707652       -0.39719509108592       -0.03134770755959
N           -2.06902388580064       -1.57658862860221       -0.02864873110863
C           -0.74686249227958       -1.87560092520571       -0.00082010729274
C            0.25832778788008       -0.99580818221972       -0.15416323091894
C            1.74070322825064       -0.88967294777287       -0.15486886594166
C            1.66005561911186        0.53635239332315       -0.50382665524981
C            2.96306326867584        1.03928071212902       -0.26252339517181
C            3.65971993904666       -0.04868584673490        0.20684441567371
N            2.88336496395240       -1.19509294253005        0.36580562638869
H            4.69323486429717       -0.09114996370738        0.49796202777067
H            3.35676466667472        2.01843068959517       -0.45933321741727
C            0.28216811270540        0.44807415899325       -0.28032660330334
C           -0.77907548671949        1.36677578492787        0.01790464120145
N           -0.42772794581375        2.66801730334067        0.20890093801762
H            0.50952025851274        2.94790564647644       -0.01907297523990
H           -1.13438848606020        3.37806530094163        0.27566572287602
C           -2.07417192356356        0.93991090413230        0.09953069621317
H           -2.82218111303577        1.70779870189220        0.26432850864772
H           -0.54506067783968       -2.92997199557238        0.13641246938874
H           -4.53490436290265        0.35820974969081        0.10795334053160
H           -4.39834338116266       -1.34047876087530       -0.11814591241910
