22
 energy: -42.645386062569 gnorm: 0.000874246493 xtb: 6.6.1 (8d0f1dd)
N           -5.35232365971835       -1.28290611177757       -0.00330776011697
C           -4.30538041414974       -0.81314828257174       -0.00473457628138
C           -3.02857741952720       -0.20842156327511       -0.00033133251268
C           -3.08071506493059        1.27454491473083        0.00378700342665
N           -2.19374680018456        2.18134077460582        0.00511879044373
C           -0.82514389646630        2.04689670715347        0.00291537837768
C           -0.16773476076519        0.88057711530807        0.00160222672101
C            1.22563908291980        0.36920235485230       -0.00003682609238
C            0.69489134183879       -0.99006862982147       -0.00037449311169
N            1.66592661913441       -1.93225449534842       -0.00303577059849
C            2.78682006438251       -1.23802210535528       -0.00464835978776
C            2.57670919658143        0.25368813341466       -0.00319896736481
C            3.62077827571587        1.17572184760517       -0.00441433606844
N            4.52135753092593        1.88994902154160       -0.00877631126665
N            4.00108457918982       -1.79249769176946       -0.00698251826791
H            4.82693945942021       -1.22001005231040       -0.01006902055984
H            4.08008814145803       -2.79421957222882       -0.00894184322744
C           -0.61781813237230       -0.52386853212090        0.00057798425406
C           -1.93928497332120       -1.02693480468421       -0.00113287186800
H           -2.07637627784992       -2.10125072875918       -0.00363705134415
H           -0.30256605438207        2.99376723632426        0.00304357159358
H           -4.10004553389938        1.65450429308636        0.00624283755192
