21
 energy: -33.344574401105 gnorm: 0.000448956053 xtb: 6.6.1 (8d0f1dd)
N            3.44229432800369        1.45198896582959        0.00010216095206
C            2.36191018476534        0.64224001387904        0.00024988323985
N            2.70813895053508       -0.64595797697270        0.00027062701043
C            1.95017489319782       -1.72936003328742        0.00023685747062
C            0.57808995841084       -1.92746895622227       -0.00004385215320
C           -0.32711838121467       -0.87651989967863       -0.00000523513303
C           -1.73039811484083       -0.64644665123957       -0.00009916357655
C           -1.50315766064276        0.79351934955267        0.00019914540366
C           -2.72012148060195        1.43036776734878        0.00016283325456
C           -3.69344403656233        0.39575381281785       -0.00020785111392
C           -3.10365575398958       -0.87172862618482       -0.00036575878810
H           -3.62946254834092       -1.80913351333108       -0.00062828863425
H           -4.75509238362001        0.57286985659322       -0.00033879216792
H           -2.93646655776017        2.48362918145993        0.00033533390891
C           -0.07674469862873        0.56470468859141        0.00030595566056
C            1.08923647137018        1.27125728377776        0.00047013588092
H            1.06198415796201        2.35255618949407        0.00063229544947
H            0.20598438875383       -2.94232586509895       -0.00019393079612
H            2.56113610381850       -2.63070599596342        0.00040520628628
H            3.35443058796637        2.45175883772997       -0.00023034185277
H            4.35149724081825        1.02330026860456       -0.00025574360143
