24
 energy: -41.295604775075 gnorm: 0.000961108334 xtb: 6.6.1 (8d0f1dd)
N            4.39707230736390        2.07439268468849       -0.03080520277085
C            3.65481732694953        1.19736485801355       -0.01984241091024
C            2.75370911210716        0.12909009993575       -0.00673633926893
C            1.38992297934247        0.14064843732818        0.00014260319218
C            0.91087169258601       -1.22468721230799        0.01021195959859
C            2.03227937976304       -2.09343282239322        0.01103746208184
C            3.13893633720849       -1.28703161676061        0.00042028339850
H            4.16388067884170       -1.61054760616999       -0.00143301924900
H            2.03585897879781       -3.16851644869314        0.01940700085975
C           -0.42213697044646       -0.77151169564329        0.01631799588558
C           -1.73278428615252       -1.33568285629273        0.02045527587352
C           -2.84985946904171       -0.54076354813071        0.02061499261311
C           -2.96533975077704        0.89673033220418        0.02506101815958
N           -2.08770034055408        1.86222580708426        0.00957046393868
C           -0.74162595456231        1.76488995167634        0.00781476551089
C           -0.02643031057946        0.61908906667410        0.00744935914532
H           -0.24014624595039        2.72496007655991       -0.00159667505045
N           -4.25640818165586        1.34966298466327        0.09724641986069
H           -5.02116559304541        0.75316638752918       -0.16297815924523
H           -4.37501643430549        2.34157713935923       -0.01843145934587
H           -3.80205009371238       -1.05990077393523        0.02889049940051
N           -1.81758348538164       -2.69314927636415        0.05813048978090
H           -2.70463529068755       -3.15123693145128       -0.04835261528202
H           -0.98013259781186       -3.23194399376909       -0.07041619797727
