21
 energy: -38.131920702058 gnorm: 0.000374019505 xtb: 6.6.1 (8d0f1dd)
N           -2.49835836988059       -3.11288099289706       -0.00060497068069
C           -2.21183970239840       -2.00201742137979       -0.00099823592673
C           -1.84923547641397       -0.63628934540371       -0.00032109003311
C           -0.50684664932992       -0.29098768671702       -0.00002220713454
C            0.78402646985765       -0.87716827791008        0.00014106799190
C            1.40892518189676        0.44900640422825        0.00035438770642
C            2.78844038216242        0.20681664825035        0.00060528083944
N            3.00643763152897       -1.14589352320554        0.00056455166945
C            1.83655058433713       -1.79124300375967        0.00029303371388
H            1.81923124431123       -2.86560303790307        0.00023187330429
N            3.82077016669536        1.05850964743645        0.00076557841104
H            3.66756381942525        2.05024931910064        0.00119087049050
H            4.75273022317483        0.68290861077333        0.00124103922197
C            0.13174319582506        1.06344404124110        0.00022298696652
N           -0.31575670052169        2.28957244216373        0.00025468876394
C           -1.61687930031561        2.54981501292366        0.00006435150415
C           -2.74204004254048        1.72002226954377       -0.00020025619687
C           -2.86330654312113        0.33562702828336       -0.00037316900123
H           -3.87563836057501       -0.05224418378003       -0.00061356036172
H           -3.68361240408219        2.25571516432706       -0.00034375397181
H           -1.81887091073565        3.61678496268423        0.00010051722318
