25
 energy: -45.848879914602 gnorm: 0.000421311108 xtb: 6.6.1 (8d0f1dd)
N           -5.90001098895247       -0.09138510400613       -0.00012990060514
C           -4.75127628463146       -0.14059765679678        0.00055388233142
C           -3.35477355230967       -0.20906308833619        0.00012754146837
C           -2.61757043307476       -1.43331354139740        0.00014433703486
C           -1.29876611741700       -1.05963278742284       -0.00000615012858
C           -1.21908307021470        0.40146267258631       -0.00013508109452
C           -2.49462374938761        0.92115081665475       -0.00010583155191
H           -2.81593564595931        1.94587587600045       -0.00012833915123
C            0.20842875078400        0.32654732976949       -0.00021064856828
C            1.29687594756123        1.17414738306968       -0.00022863332722
C            1.10460000034338        2.56634783756552       -0.00019127987223
N            0.99141860245218        3.71070243960507       -0.00027233343241
C            2.64799521729173        0.68057496508714       -0.00012071575431
N            3.10811315044126       -0.55771110867695       -0.00043246731093
C            2.50164076698595       -1.74205688094592       -0.00063721435153
C            1.12536323137312       -2.07903561499570       -0.00030371247028
C            0.14058903799257       -1.13683001676833       -0.00013679428571
H            0.86264037688156       -3.12744861700590       -0.00029326516916
N            3.38098141870724       -2.76432098056670       -0.00112446157622
H            4.36322240149871       -2.55218139305097       -0.00145632770570
H            3.07418606311947       -3.71996431090782       -0.00147735767406
N            3.62379178751714        1.60667348188116        0.00027497219128
H            3.40624636217516        2.58917183331946        0.00043507601830
H            4.57976359150644        1.29667400922832        0.00030264361298
H           -3.05784334228430       -2.41338905078975        0.00035005387196
