19
 energy: -33.877628658970 gnorm: 0.000639184092 xtb: 6.6.1 (8d0f1dd)
N           -4.12541953631869       -0.08307433553506        0.09797480212497
C           -2.80149893481609       -0.06998496453920       -0.09074343801929
N           -2.09781441477101       -1.13209380169152       -0.46947610625275
C           -0.84745792334783       -0.62832017524999       -0.54576490748761
C           -0.89263342717542        0.79948182548886       -0.22906299393369
N           -2.08555278671789        1.11964390231357        0.16347031733578
C            0.58664112681031        0.84126337340406       -0.15910137842223
C            1.60915944613341        1.68967436632143        0.00874865436641
C            2.96984863761443        1.21392429180551       -0.00427965750205
C            3.42099811842359       -0.06541498267077        0.03914910438213
N            2.78813616455288       -1.25852840565145        0.26642295603935
C            1.54766856168027       -1.53098989793268        0.15516820821102
C            0.52028806609702       -0.61561207864874       -0.27257982891718
H            1.25145007271306       -2.54245921866406        0.41773033561835
H            4.49442119136152       -0.21598632409760       -0.01301822608347
H            3.72636537037753        1.98680268516045       -0.04989781163416
H            1.43881688575484        2.75137198586265        0.10087607623868
H           -4.55142644380258        0.70947164200180        0.54317994025172
H           -4.61085644386925       -0.96021689337726        0.04632371548395
