25
 energy: -45.828327809360 gnorm: 0.000367842692 xtb: 6.6.1 (8d0f1dd)
N            1.98025185032188        3.45985282735369        0.00565842936480
C            2.14440253625855        2.32285897059706        0.00391049808824
C            2.26607948422654        0.91925312733454        0.00195624970879
C            3.53970988354195        0.31404327856022        0.00699094660899
N            3.90703368435574       -0.94569639255675        0.00159975269126
C            3.18835255911941       -2.05825628259765       -0.00513297704570
C            1.81466248570406       -2.30303120655638       -0.00288717289221
C            0.87842223905609       -1.29439735702212       -0.00133278144667
C           -0.52167857959940       -1.07315177466395       -0.00244993874775
C           -0.30292997569929        0.37656182319578       -0.00406350868553
C           -1.53889637778484        1.03138536073297       -0.00543682072512
C           -2.51805764079505       -0.01670685266634       -0.00403828902711
C           -3.89408537733847        0.18744683437130        0.00188626475656
N           -5.03481643014222        0.34756764665435        0.01084093389481
C           -1.89976610180613       -1.31136802288708       -0.00220450808512
N           -2.56850656869563       -2.47952814514282       -0.02202123643069
H           -3.57215202615728       -2.47965957140406        0.03953931450188
H           -2.07422416980315       -3.34942847336203        0.05587608509255
N           -1.79279853291676        2.34834516234748       -0.00548805758589
H           -2.74074859724201        2.68311833682770       -0.00884924967497
H           -1.03371492479651        3.00761292495690       -0.00697085345086
C            1.08992008178073        0.18279705911686       -0.00195966726975
H            1.48507193706851       -3.33383871103385       -0.00493391769595
H            3.82582140156130       -2.93975180553851       -0.01181904250654
H            4.38640810238220        0.99715210438295        0.01525406446186
