28
 energy: -48.181072715658 gnorm: 0.000807975931 xtb: 6.6.1 (8d0f1dd)
N            3.71425808615511        2.55140415796691        0.03359816370263
C            3.19090081975696        1.52347723920159        0.02847423165720
C            2.50603013956240        0.31744123222415        0.00985044515678
C            1.08829134408112        0.14037193098826        0.02312989194544
C            0.81000878982894       -1.28167947139974       -0.01551403502410
C            1.96756593819414       -1.97189711225132       -0.06341568768764
C            3.03777551861480       -0.97524368477774       -0.03980163865528
N            4.36223093749963       -1.30308618137809        0.00333675948412
H            5.02398174654837       -0.56337213972143       -0.16788294349059
H            4.62710292712677       -2.21755605960421       -0.32089162108958
H            2.14850251627031       -3.03124983086072       -0.11242695966549
C           -0.66373100156325       -0.95431423715450       -0.01932636881408
C           -1.87290921553898       -1.56152977922023       -0.03017000183845
N           -3.07138819479583       -0.91016189596621       -0.00853022149426
C           -3.30442030484277        0.36575875080727        0.01246745786864
C           -2.45315964422798        1.53365729623920        0.00323759739653
C           -1.08840962384081        1.61610255154917       -0.00734222528503
C           -0.27497634889848        0.43852299375429        0.00084039467190
N           -0.43131571729706        2.80359035421116       -0.04929805210724
H            0.56951064670962        2.81455136796376        0.04113069200309
H           -0.93070451566948        3.66853472409111        0.05183293419687
H           -2.99196513870252        2.47430150557206        0.01593405274178
N           -4.64230758447988        0.66853905933670        0.11553312582179
H           -5.26637620323032       -0.10798671442444       -0.02818826036116
H           -4.96570599841054        1.57049896007507       -0.18669570371227
N           -2.00133329442961       -2.93884982260783       -0.13223490497134
H           -1.21555246701994       -3.47062834930906        0.20682824609256
H           -2.90408604589991       -3.28119132990395        0.15663792055695
