25
 energy: -44.247149898132 gnorm: 0.000815645332 xtb: 6.6.1 (8d0f1dd)
N           -3.06573286278669       -2.46063810548425        0.04215207439366
C           -2.59203962500286       -1.17203790761038       -0.01237881631714
C           -1.26691586136851       -0.74041037007378       -0.00471423050835
C           -1.26675174164250        0.74055473531052        0.01118248196539
C           -2.59177726121231        1.17246526787003        0.01981036552215
N           -3.06523473175720        2.46116540934499       -0.03438254338757
H           -4.01077456910636        2.60147200494920        0.28453323612406
H           -2.41162631580134        3.17370314736478        0.24842979165835
C           -3.38123085505012        0.00029808512024        0.00400420121807
H           -4.45837345678591        0.00041383005200        0.00438534688736
C            0.13764409920415        0.75453336246563        0.01118178566925
N            1.09797737894163        1.64652818810150        0.01810451104700
C            2.36819494666928        1.20984472540204        0.00689544960461
N            2.91695312591986       -0.00037469415707        0.00152015703652
C            2.36793315585690       -1.21047663396736       -0.00340518577668
N            1.09761318582560       -1.64688893966567       -0.01355443263518
C            0.13747656479359       -0.75468929238594       -0.00582843406298
N            3.27665041125092       -2.21138197023230       -0.01825694125051
H            2.95159182044465       -3.15840882222793        0.04652699347184
H            4.25172743547962       -1.98847153627460        0.05891954765799
N            3.27713708949662        2.21055571000940        0.02095992454124
H            2.95222611507556        3.15765433344455       -0.04350073026678
H            4.25210477901801        1.98743943122994       -0.05698965578285
H           -4.01152224264078       -2.60074562162043       -0.27611927379413
H           -2.41246986492167       -3.17331274386492       -0.24111581221532
