25
 energy: -45.834308114226 gnorm: 0.000512254046 xtb: 6.6.1 (8d0f1dd)
N           -5.35040864470347       -1.04727408132119        0.04922442067594
C           -4.22650005979011       -0.80100614247894        0.02490044115088
C           -2.87689833773961       -0.44922704806683        0.00555141451289
C           -2.43121823601345        0.92410115494712        0.01074083398816
C           -1.04373709311458        0.85019958298021        0.00053301628963
C           -0.64933003468557       -0.56612685482402       -0.00960274525466
C           -1.78494343314292       -1.35044333801581       -0.00714687138538
H           -1.87204168727713       -2.42132964114826       -0.01165770440074
C            0.72134166888627       -0.20006437548831       -0.00740429024990
C            1.97230948924396       -0.79080560221065       -0.00657233211865
C            2.07319142335095       -2.19534532863696       -0.01289582676243
N            2.18173748691023       -3.33965104033644       -0.01702567918166
C            3.17079760672209       -0.02255874912385        0.00126387672682
C            3.26098603827615        1.38946124393977        0.01040347945753
C            2.30444594998873        2.38538014376630        0.01675000923062
N            0.97129184049362        2.36621708051576        0.01584853952976
C            0.32095168104759        1.23717808978060        0.00377280062282
H            2.69082566045285        3.40051856700549        0.02484198278478
H            4.28300203734293        1.75256523901582        0.01427931401077
N            4.33480480523993       -0.70495224640004        0.00053139235974
H            4.33222985332302       -1.71159217671220       -0.00574560007953
H            5.21420384207731       -0.21929880518596        0.00580472962710
N           -3.24060156492146        2.00408774823548       -0.01413061243939
H           -2.84397439055821        2.91787012076839        0.11327726141021
H           -4.23080133230903        1.88102244599630        0.11122914349501
