23
 energy: -41.587011090726 gnorm: 0.000692006521 xtb: 6.6.1 (8d0f1dd)
N            4.97239860443863        0.80122864967319       -0.00819952054820
C            3.83295031782986        0.64530787719053       -0.00694958741542
C            2.43755009558376        0.43925019203994       -0.00394649671837
C            2.03526555106321       -0.93734457179709        0.00271005549133
N            0.80812987096576       -1.47074327858606        0.00215813011086
C           -0.27195913851346       -0.74958765076721        0.00185462059046
C           -1.67012620928546       -1.02146970088035        0.00171823570674
C           -1.94837511642459        0.42478085293493        0.00747141211971
C           -3.34447877721888        0.52680495491868        0.01200904582662
N           -3.88548840967564       -0.71960589835397        0.00878432152003
C           -2.90513745060108       -1.64331461935066        0.00068188923727
H           -3.16258650747001       -2.68626175612890       -0.00080891432302
N           -4.14153414422112        1.62099958463974       -0.03499035346734
H           -3.76185581395038        2.51271502484868        0.23047583293203
H           -5.12193301681525        1.46042957330840        0.12458760512867
C           -0.56214125191116        0.71470655353533        0.00399748588778
C            0.30257878263360        1.78728625332087       -0.00262294625677
C            1.67840521336807        1.61612700867213       -0.00731014133261
H            2.27292992834523        2.52350812060813       -0.01346843747594
H           -0.09148654763684        2.79451470362867       -0.00617096557449
N            3.00571036021506       -1.87010110741129        0.00975084509444
H            3.97997910291151       -1.62028263278523        0.00770451272991
H            2.72286797236923       -2.83496531905848        0.01129071443625
