23
 energy: -41.585611008543 gnorm: 0.000509329484 xtb: 6.6.1 (8d0f1dd)
N           -0.85702308647362       -3.31452061831621       -0.01636516962761
C           -1.00570566583440       -2.17380706821984       -0.00180499422335
C           -1.17987431858666       -0.77991965313185        0.00795901938937
C           -0.05852076309042        0.02646044233162        0.01364923794646
C            1.35113177202461       -0.10156986849286        0.01465834975410
C            1.49307294065902        1.36309146122604       -0.00055400539194
C            2.85870341839868        1.60270478536309       -0.02233637374691
N            3.53151261208292        0.44081225818688       -0.02112519032340
C            2.65250802050191       -0.60433801913408        0.00299868074634
N            3.09354544481593       -1.87690206666177        0.05412930571078
H            2.44882486686329       -2.63388079522938       -0.08895007136193
H            4.07619646768537       -2.03470987642511       -0.08388096928006
H            3.40399584651637        2.52841669010161       -0.04246740588339
C            0.07266516440491        1.50227022037887        0.00421686016743
C           -0.90262863778382        2.46851366991772        0.00137110294482
C           -2.26424496504604        2.15841599962142        0.00650232084489
N           -2.92345349156536        1.02000601774217        0.00614307923900
C           -2.50740952628714       -0.24226551767726        0.00330144738034
N           -3.52721389782367       -1.12636575411776       -0.00390125552007
H           -4.46463092847250       -0.76382714849181       -0.00739421190170
H           -3.36201670078695       -2.11821053713804       -0.00596865195479
H           -2.94441927963533        3.00782267364659        0.00898661242813
H           -0.61732478226727        3.51115209272005       -0.00363085533681
