24
 energy: -41.290417754119 gnorm: 0.000329361229 xtb: 6.6.1 (8d0f1dd)
N            4.46258644121165        1.18476327336548        0.02802712685046
C            3.43161543201585        0.67669227234063        0.01331785042491
C            2.15516661591148        0.07654322036018       -0.00346992417187
C            2.17120045979174       -1.35612363489838       -0.01794728670167
C            1.17985335790545       -2.28365852588767       -0.03448880783256
C           -0.24434855285768       -2.11303276377950       -0.04077411173451
C           -0.80725316531440       -0.87650027262394       -0.02702194684502
C           -2.18326507315745       -0.26187678080811       -0.01729943438915
C           -1.54925405927936        1.03852037095904        0.00116863207400
N           -2.45471415086401        2.05198380005211        0.01611110187543
C           -3.61135736398845        1.42709343135150        0.00512687962469
C           -3.51574967108204       -0.03313368838860       -0.01668123719144
H           -4.35694741497008       -0.70098368744369       -0.02916359360495
H           -4.53051738968907        1.98453998184587        0.01306089998916
C           -0.26787913064041        0.45697430056771       -0.01077906216334
C            1.06834770558898        0.94668409489035       -0.00209946933045
N            1.21160621259878        2.28904802949344        0.01208887342702
H            0.38467347981001        2.86168815053094        0.01199077118562
H            2.12173231511303        2.71590705466915        0.01801176209751
N           -1.03112458822819       -3.24645038778074       -0.13569094369798
H           -0.63355874744286       -4.10625600192197        0.20543795752280
H           -2.00615816425784       -3.11483236378774        0.08088484119218
H            1.50012270461976       -3.31864741926771       -0.04727785327490
H            3.17981578080508       -1.75463923663837       -0.01479433782590
