26
 energy: -50.331780594765 gnorm: 0.000841003690 xtb: 6.6.1 (8d0f1dd)
N           -4.72806311961756       -1.94641876614944       -0.37191818081810
C           -4.16315248657088       -0.95050878812342       -0.27058535246275
C           -3.37815402018128        0.19397419660174       -0.13231113710125
C           -1.98390154872960        0.30044186994351       -0.41420357282791
C           -1.65694929177852        1.69166345582041       -0.12538379266845
N           -2.66226800241715        2.34274890293779        0.36995214916797
C           -3.73214346253969        1.47373237928914        0.28492419251198
H           -4.70913794484474        1.81755162230251        0.56775890801201
C           -0.20015943073401        1.36111300454157       -0.15371261071512
C            1.00383933215269        1.94289128268625       -0.05381333063373
C            2.23351772924941        1.21113801823991       -0.05907461426718
C            3.38125717175423        2.03038977113050       -0.05940628113237
N            4.31072172565161        2.70681895598359       -0.05846976589632
C            2.45947561699721       -0.16996366696593       -0.03439865301217
N            3.75423448867911       -0.58149773099397       -0.06872546080636
H            3.99243984187872       -1.55355818338305        0.02226037680716
H            4.49344099692646        0.10055954261607       -0.06075739100679
C            1.49087047803978       -1.24266890426898        0.04607863123962
C            2.04267988526277       -2.53363177137577        0.20793309253109
N            2.46073837983819       -3.59545861629774        0.34643908721013
C            0.09809650662509       -1.22541581541295       -0.02857404791407
C           -0.62417263667927       -0.01657589332243       -0.25026483332600
N           -0.63059297839443       -2.35444576984106        0.07062497597010
H           -0.19137080315512       -3.24993211649307        0.20403432749959
H           -1.63206962305801       -2.31455790330168       -0.02218348174212
H            1.07899725494503        3.01717800913639        0.03389037388154
