23
 energy: -41.594447738671 gnorm: 0.000442251675 xtb: 6.6.1 (8d0f1dd)
N           -5.24864654243004       -0.78332413150910       -0.05606639473395
C           -4.10390842631379       -0.66317549370067       -0.03041783818492
C           -2.72296392365107       -0.47498153177899       -0.00963860158451
C           -1.74721933888567       -1.51407855447591       -0.00146988974903
C           -0.52623600291554       -0.88618268246859        0.00303439596336
C           -0.73454906051562        0.56688956626872       -0.00198552699889
C           -2.10905301934250        0.82010211375200       -0.00974094973849
N           -2.76173257062876        2.00258342782659        0.02452522639267
H           -3.75836855556371        2.01722755579337       -0.10918715667019
H           -2.24211753908653        2.85101283783424       -0.11280943376592
C            0.65815734547679        0.78160512523082       -0.00823445748201
N            1.45951811968327        1.82194114491153       -0.02539201024256
C            2.77462665215045        1.64788615455597       -0.03327597787454
N            3.57347756924641        0.60996353029150       -0.01941071369565
C            3.30689293978810       -0.70541447342455        0.00080693307674
C            2.06600140131644       -1.38667211934967        0.00404224879692
C            0.89159681718974       -0.69233469845427        0.00064813725043
H            2.07030683931819       -2.46844882547084        0.01270557232628
N            4.43308830744082       -1.44670363449787        0.01596837500572
H            5.31429537621722       -0.96255481508895        0.01298289272015
H            4.40686996981239       -2.45010119265098        0.03059933540127
H            3.32061347705782        2.59036733332901       -0.05448412828942
H           -1.97982977146447       -2.56351759752333       -0.00171537742348
