22
 energy: -38.652513090788 gnorm: 0.000131479626 xtb: 6.6.1 (8d0f1dd)
N           -3.24164542678431       -3.22421750631116       -0.00303168226263
C           -2.50128863771454       -2.34970615537621       -0.00226479298846
C           -1.57646851351069       -1.27096004616937       -0.00132880692788
C           -2.16739342297996        0.00029044883438       -0.00030018431469
C           -1.57615947903314        1.27139506228691        0.00100679209479
C           -2.50071880438654        2.35036649027948        0.00210357835130
N           -3.24087221563618        3.22506450640709        0.00285855463668
C           -0.22832318858907        1.64525473851456        0.00158940734362
C            0.80661969923251        0.72977339571807        0.00087982229851
C            2.23913903874755        0.72489242260785        0.00138563356645
C            2.23896151423747       -0.72538756549408        0.00006087297527
C            3.55693722507955       -1.16542602930048        0.00052179060883
C            4.34831516452129       -0.00050739384610        0.00207204037486
C            3.55722085925987        1.16460690266254        0.00264766691436
H            3.92973798356892        2.17244915009887        0.00387686582815
H            5.42335365019557       -0.00063889231427        0.00279366757608
H            3.92920730191851       -2.17336006316436       -0.00008559268851
C            0.80644262465887       -0.72991780759478       -0.00045552840330
C           -0.22872447071169       -1.64514772058751       -0.00142853827629
H            0.00436049286897       -2.70136326968041       -0.00223267701873
H            0.00501832242275        2.70141335253724        0.00272703680136
H           -3.25190108026572        0.00042259759175       -0.00045209088982
