21
 energy: -37.331989631041 gnorm: 0.000516872297 xtb: 6.6.1 (8d0f1dd)
N            4.20897509129661        0.20267068575574       -0.16798551272843
C            2.89119518934440        0.07937558080060        0.04221176309946
N            2.10754360653808        1.07431879626950        0.43835891001447
C            0.90577833647652        0.45550164450560        0.54950840635424
C            1.07012506477958       -0.95881571916450        0.21481416406244
N            2.27761962302265       -1.16983654656923       -0.20107860190502
C           -0.40912911641680       -1.12150456189314        0.16135989780801
C           -1.36799191135008       -2.03909270197505       -0.00414115893050
C           -2.75874538387654       -1.66634076899153       -0.02454959370908
C           -3.31309191423286       -0.42569174642479       -0.04132367475987
N           -2.80710436938836        0.83754298209712       -0.11233635720103
C           -1.57092447655017        1.20510534788673       -0.00987630134631
C           -0.45710164662065        0.32815913602401        0.29356102579113
N           -1.26616247508211        2.51021377239766       -0.17852285660083
H           -2.00863935612716        3.16830647470510       -0.33522902059312
H           -0.33004790228266        2.82977316506440       -0.00249176197392
H           -4.39862974960637       -0.38399211378230       -0.04676361064299
H           -3.45419854610719       -2.49496213237816       -0.03810503055136
H           -1.11976814501752       -3.08478732698388       -0.10629562024374
H            4.61516061476890        1.12032826022047       -0.14945711872613
H            4.68056068193174       -0.54684613716428       -0.64084733891742
