26
 energy: -45.538981644189 gnorm: 0.000590651781 xtb: 6.6.1 (8d0f1dd)
N           -4.18459765178691       -2.58242900435173        0.03508879765539
C           -3.45352800169182       -1.69483440784597        0.00097410526826
C           -2.55557659151371       -0.60968882856742       -0.02195456478794
C           -1.16464465744510       -1.00821034492625       -0.03327236448164
C           -0.14889389603063       -0.13703147291368       -0.02833884517053
C            1.33460756465487       -0.13347314319108       -0.02323289086819
C            1.32345722151778        1.32052543672510       -0.01184069278755
C            2.65270989341582        1.78815375013375        0.01164656528176
C            3.45362319540075        0.66158587650757        0.01251476223729
C            2.62489278299924       -0.56738673839725       -0.00744480457201
C            3.15766103619666       -1.85658761744010        0.01220392562505
N            3.63315416298276       -2.90299093534981        0.04277352266721
N            4.81429299333328        0.60231332426455       -0.03115877695875
H            5.33095587829213        1.43558756032341        0.19167095916342
H            5.25414786089848       -0.27600124471226        0.18806410539168
H            2.99960964775323        2.80353040024402        0.02359504180120
C           -0.07894237487005        1.32343389985786       -0.01381835204251
C           -1.13384937228167        2.26626700802580       -0.00560085034866
C           -2.44770035645022        1.94414106893269       -0.01241251598347
C           -3.11579077703874        0.65896487157264       -0.02088579068429
N           -4.48216656139506        0.76015505341778       -0.07994815318577
H           -4.92355902289924        1.63346295804172        0.14689825266839
H           -5.03303877959503       -0.07507768177369        0.03134775413703
H           -3.14442881171720        2.77537217762287       -0.01337695252620
H           -0.85963904866136        3.31339436041878        0.00338728536903
H           -0.97403117536818       -2.07210688571931       -0.03912220066815
