25
 energy: -46.620998555466 gnorm: 0.000899558614 xtb: 6.6.1 (8d0f1dd)
N            4.15800190794674        3.01680242745211       -0.00415186216336
C            3.60283635391912        2.01148389681457       -0.00259123051244
C            2.88472286301230        0.81127993597471       -0.00049189794710
C            1.46993615492374        0.66335191868328        0.00164195129219
C            1.16362528548355       -0.73687908323317        0.00238580367440
C            2.34072611176396       -1.45655122459893        0.00100040800855
C            2.52108041379668       -2.84441855198561        0.00038907729908
N            2.65658645975014       -3.98463147018017       -0.00006329252868
C            3.40405291767427       -0.48014393555901       -0.00080656980161
H            4.44856285189264       -0.73186887861312       -0.00211271753893
C           -0.28063218580009       -0.41141252722650        0.00331608354324
C           -1.47770670622977       -1.03919799779002        0.00248206219701
C           -2.72879595628409       -0.35843846889692        0.00227566413415
C           -3.84720194526536       -1.22170643765601       -0.00405749009847
N           -4.75734703943148       -1.92265191614838       -0.01336001447940
C           -3.00946945167514        1.01775129396803        0.00509050876548
N           -4.32011471535283        1.38928142096984        0.02541802175195
H           -5.04584156542949        0.69449805487163       -0.01197382501530
H           -4.57911311425515        2.35676300372745       -0.03190916639113
C           -2.08436935023663        2.10930716193453        0.00278833558559
C           -0.71975813625604        2.13595382748566        0.00099952943890
C            0.08859505656757        0.99200067041839        0.00213436277939
H           -0.22492493392922        3.09802160978762       -0.00099806098096
H           -2.57272281463547        3.07768026357169        0.00348807024630
H           -1.51520683274997       -2.12007601487160        0.00080460304116
