26
 energy: -44.743443402524 gnorm: 0.000706485735 xtb: 6.6.1 (8d0f1dd)
N           -3.33152480791996       -2.64321675246864       -0.06199224562665
C           -2.90379016943842       -1.57303421670692       -0.03597551265071
C           -2.33753875867192       -0.30551885214641       -0.01919995310432
C           -0.94951997737752        0.01312342135608       -0.02161602220998
C           -0.81634546631535        1.45928699350359       -0.02072901653917
C           -2.03895150038035        2.03044827661128       -0.01310795162843
C           -2.99996989455638        0.93022921113642       -0.01479290646972
N           -4.34598510106708        1.11507763681216        0.04741001571802
H           -4.94140723915097        0.32166865786967       -0.12217995673628
H           -4.71671225489483        2.02054213462175       -0.18316520591438
H           -2.32433650145820        3.06707711287552       -0.00606650018788
C            0.67706652473748        1.28663775594011       -0.02217024827443
C            1.81908301913785        1.99693430683197       -0.02167244895851
C            3.10409662040580        1.38281018990928       -0.02489205063106
C            3.43651416066707        0.04477473720466       -0.02609755233507
N            2.68433745208227       -1.09190511108093       -0.00203655427997
C            1.39374518536393       -1.21959605189087       -0.00167904762850
C            0.43942823433817       -0.14229050809564       -0.01880720000152
N            0.88567191272509       -2.47157578545419        0.04202785556095
H            1.51187738813887       -3.25606103106881        0.01184013617097
H           -0.10667213143657       -2.62153163476509       -0.00887601839509
N            4.77476087944444       -0.28603970643067       -0.10819495388347
H            4.98763801389740       -1.24458920614882        0.11142753166818
H            5.45277072661796        0.40067419082383        0.17368535549081
H            3.94462555088775        2.06473037478980       -0.03638210342211
H            1.78613983852313        3.07711260377077       -0.02053733343161
