17
 energy: -30.448840123009 gnorm: 0.000763339452 xtb: 6.6.1 (8d0f1dd)
C           -3.31758919373030       -0.00008146397752       -0.00413107408084
C           -2.53209539362200       -1.14131853186999        0.24941157407849
C           -1.21830560202979       -0.72217192807864        0.14395350014055
C           -1.21823551121030        0.72200040855748       -0.15130370674428
C           -2.53197647871220        1.14114751493863       -0.25739876647784
H           -2.90673700790709        2.12274208508303       -0.47883899537700
C            0.19926076293823        0.73575116785018       -0.12937454884664
N            1.15640051536005        1.64618874426012       -0.08195765280944
C            2.35935738751871        1.17789487069025        0.23065799736979
N            2.87436812528394       -0.00009488027979       -0.00275855831444
C            2.35945405884276       -1.17808137787209       -0.23640575750678
N            1.15635712145081       -1.64636976060478        0.07567843554109
C            0.19920030228514       -0.73592763920394        0.12267077511877
H            3.04071415272274       -1.90306128776613       -0.67406510426811
H            3.04042590887697        1.90287145129146        0.66862422783750
H           -2.90695945218583       -2.12291256199471        0.47068004157774
H           -4.39381367648187       -0.00008105612352       -0.00437786083847
