22
 energy: -41.849198370245 gnorm: 0.000818922573 xtb: 6.6.1 (8d0f1dd)
N           -4.11329505200906       -2.07832586366756       -0.18134914902436
C           -3.14024619438899       -1.46809079810871       -0.10929792233568
C           -1.95777137609168       -0.71448933328386       -0.02622118017961
C           -2.10919605940498        0.68132906713937        0.03315242252399
N           -1.19795294871140        1.67351984181880       -0.09672190003780
C            0.09409426254152        1.64162222283936        0.01113958563787
C            0.84228269963221        0.47872058844977        0.43097083580968
C            2.17877090743460        0.20058306501238        0.73196410976787
C            1.90826892412748       -1.15497488028024        0.22280211795701
N            2.96601487484154       -1.55602298817591       -0.41169262813032
C            3.90644267833407       -0.57951706241225       -0.12012743645466
N            3.48043727708258        0.49783445812943        0.49704044313458
H            4.92177934642384       -0.69105342345703       -0.44877468438433
C            0.44793563825189       -0.90013356859310        0.22250550990873
C           -0.73907278524453       -1.46930839277060       -0.02884350487915
H           -0.81349959404059       -2.53031726581620       -0.21813249810701
N            0.79493762519337        2.75891007518480       -0.24180168305123
H            1.79297348197656        2.76166070894958       -0.11702586133706
H            0.31658099848111        3.59329981702151       -0.53290316296655
N           -3.36160220977319        1.18619682217119        0.16619438384104
H           -3.47967859884922        2.17822106202379        0.06372219309372
H           -4.16282577380835        0.57996628462537        0.13056779981245
