25
 energy: -40.228754137828 gnorm: 0.000930705888 xtb: 6.6.1 (8d0f1dd)
N           -3.55679430421577       -1.93243895186583        0.07576637000379
C           -2.48091586955588       -1.09128280118847        0.02850129781912
C           -2.76658163839339        0.28095784009063        0.02505301831901
C           -1.94122481330153        1.41100673692114        0.03410851329072
N           -0.60206025390228        1.53737792027153        0.03005918009257
C            0.17494914510740        0.49004721408105        0.02133695102495
C            1.57556004573760        0.27532680001272        0.00767073784771
C            1.36190689923853       -1.17246453791445        0.00413334487734
C            2.59491007421173       -1.79492845796198       -0.00110828863664
C            3.55418301931681       -0.76557548898176        0.00141099053343
C            2.94866959106088        0.51381641253976        0.00748888193448
N            3.60851795564315        1.72111905491530       -0.05657325177008
H            3.07099090652509        2.52098217723949        0.23754202110852
H            4.56464311634511        1.71677584760651        0.26232607689350
H            4.61919984094868       -0.92446530680717       -0.00023751251648
H            2.81905913480014       -2.84710400865645       -0.00365452450807
C           -0.05243290745941       -0.97926591094228        0.01786925347719
C           -1.21171955811248       -1.70264237399265        0.02332054414166
H           -1.17057073462920       -2.78450832512146        0.02228392989552
N           -2.55638908913091        2.62578201728646        0.07897071913327
H           -3.54113297251712        2.71390710923861       -0.09378591451387
H           -1.96716508490083        3.43116765224049       -0.03875687896234
H           -3.82691689933278        0.51503324779316        0.02767283207083
H           -4.47960688017511       -1.56823533858258       -0.08197059468724
H           -3.41348056300836       -2.91331690102175       -0.08573165936889
