18
 energy: -30.151873004906 gnorm: 0.000490212601 xtb: 6.6.1 (8d0f1dd)
C           -2.57229754934088       -1.20607789967436        0.00063506289220
C           -3.05658134314575        0.07626371398614        0.00054197803779
N           -2.46537161454510        1.29519116409684        0.00021027839387
C           -1.20986924705279        1.57805697099655       -0.00006297269301
C           -0.12820420625697        0.64865504872312       -0.00006773731397
C            1.27402750837127        0.63516070039401       -0.00030701522305
C            1.30118050151807       -0.81922708287040       -0.00014691096074
C            2.60981138874083       -1.17489667036341       -0.00042902770916
C            3.30536586292278        0.10672211384581       -0.00068339579135
N            2.52251716124967        1.16372198798474       -0.00065086010654
H            4.37394772891710        0.22709223268600       -0.00094531073213
H            3.08680868848112       -2.13633360149851       -0.00045498326262
C           -0.18042514375796       -0.80791481579470        0.00013491091855
C           -1.22469488213917       -1.66649572232563        0.00043467620818
H           -1.05093236066829       -2.73268743860774        0.00053749196756
H           -0.96723409096294        2.63631375831503       -0.00031392914460
H           -4.13737430654830        0.18116095506607        0.00075142505332
H           -3.32411284658267       -1.98572419145958        0.00089885846569
