23
 energy: -36.767219781063 gnorm: 0.000959765986 xtb: 6.6.1 (8d0f1dd)
N            4.09730910670299        0.28932019466149        0.11643209197453
C            2.71212203048342        0.31877395682552        0.03544441216706
C            2.11048207808507       -0.97652811711343        0.03388316780563
C            0.79025602381345       -1.35342258466737        0.04261812145308
C           -0.27251899012697       -0.40807760888057        0.03196020608164
C           -1.67987445623765       -0.44822149627116        0.00972633343128
C           -1.76008184217083        0.99578850196506        0.00305666887643
C           -3.07972734762137        1.30061767712988       -0.01828961662713
C           -3.72957590203136       -0.00254620451333       -0.02521074383322
N           -2.90454990730910       -1.03195943532111       -0.01052493577301
H           -4.79298843665368       -0.16303742737540       -0.04325832596082
H           -3.59364674713284        2.24387669370458       -0.02851146713687
C           -0.25790224206703        1.03228550946063        0.02257571319709
C            0.75129486069110        1.92755564225863        0.01966900826498
C            2.12199212844990        1.56598061483633        0.02528143907214
H            2.81294986277327        2.40080141198212        0.02520976680671
H            0.52302685431353        2.98417685711672        0.00734097096966
N            0.41668524009561       -2.66339873927923        0.09328622900858
H           -0.55816923876218       -2.87288735063472       -0.03781774797034
H            1.08948985438731       -3.39207078927897       -0.05859630002262
H            2.82482638984374       -1.79406670440517        0.03988945692136
H            4.58047621914131        1.14232622220144       -0.11233801779000
H            4.55972772383236       -0.54899807840189       -0.19317899671600
