24
 energy: -42.109637357266 gnorm: 0.000837667756 xtb: 6.6.1 (8d0f1dd)
N           -5.92509284022348       -0.13337966102128        0.00662218724413
C           -4.77889409089210       -0.07430857544554        0.00454636339217
C           -3.36388144601082       -0.00333594432432        0.00170995412467
C           -2.72388223707489       -1.25098125387650       -0.00689049676447
C           -1.36876079848026       -1.54929482634509       -0.00985843625998
C           -0.37891370199988       -0.59011983996787       -0.00626983976028
C            1.04647882937151       -0.51127571405800       -0.00699910442640
C            0.97204843364131        0.94698146402188       -0.00605496227172
C            2.25521763886970        1.46761073269052       -0.00668899487192
C            3.12549128638794        0.35676627349580       -0.00807436756442
C            4.51822346151766        0.39952904904277       -0.00109933973918
N            5.66919787158343        0.39000188201030        0.00973079862392
C            2.38355660022739       -0.88885262709565       -0.00737247116648
N            2.95027170166065       -2.11074353665314       -0.02962444141998
H            3.95023686243939       -2.19395803708334        0.03977504897070
H            2.38547435938011       -2.93578308245372        0.05601982420450
H            2.57391561474989        2.49397346112203       -0.00634523315750
C           -0.45229959842665        0.88138445403654       -0.00213119236584
C           -1.53709287465193        1.73828148240525        0.00563324009381
C           -2.85067607042365        1.30957539001589        0.00809678137362
H           -3.60910920798752        2.08454557198837        0.01484094053470
H           -1.34700365315114        2.80311107547118        0.00964019239320
H           -1.08067544393460       -2.59216123134643       -0.01554785717004
H           -3.39789275337225       -2.10071596262952       -0.01084745531706
