25
 energy: -45.814902075290 gnorm: 0.000802969252 xtb: 6.6.1 (8d0f1dd)
N            5.27154384222186        1.49636718074838        0.09456238463997
C            4.36884533186291        0.78654199616543        0.05136651141951
C            3.27313259584745       -0.07595068716233        0.00380269190017
C            1.92983438112037        0.17512296119540       -0.02634500089761
C            1.28663504212967       -1.10993031532135       -0.05386964995004
N            2.17218720976539       -2.13892074582149       -0.05182144525584
C            3.34267465906372       -1.54863222916003       -0.02094464764154
H            4.25354054286334       -2.11753250476590       -0.01489899686617
C            0.00480517972496       -0.50735694048739       -0.03912224848461
C            0.56711788022826        0.81426449844493       -0.02187082982311
C            0.00263150827130        2.04052061395115       -0.00311698796985
C           -1.39379695629327        2.25546120058737       -0.01157019396674
C           -2.44805102682557        1.35995033005247       -0.02640291740502
N           -3.70573549284161        1.90194738655170       -0.10516242993685
H           -4.51282075163535        1.32283198719308        0.04942501372160
H           -3.81472880753791        2.89021697710543        0.03519584783521
C           -2.42074079127394       -0.08607056040039       -0.00409241410229
C           -3.68075795873329       -0.71929365658254        0.03416737474227
N           -4.69303654447066       -1.26323733876779        0.08571840349248
C           -1.33696107256984       -0.96642212520314       -0.01266280509514
N           -1.50288077625877       -2.30590675065570        0.00686322903081
H           -2.41718633137600       -2.72314634965624        0.03071973002278
H           -0.68487948896214       -2.89138923098511       -0.00014067797693
H           -1.69231942755581        3.29657472141220       -0.01511876387985
H            0.63675376683463        2.91494432156137        0.01444213704550
