27
 energy: -49.273150891312 gnorm: 0.000870556046 xtb: 6.6.1 (8d0f1dd)
N            2.60407439136518        3.42321406713235       -0.00043656581950
C            2.17782490690353        2.35561343571884       -0.00361405588682
C            1.68834168538684        1.03479631756000       -0.00662664811039
C            0.32812622649780        0.83949812661813       -0.00448357667648
C           -0.87202299138565        1.61526905666953        0.00273671941663
C           -1.66676096948148        0.37057807781330       -0.00691372551530
C           -3.00141429518871        0.78394753113030        0.00798062279363
N           -4.13356465302176        0.04751646394467       -0.04781839526896
H           -4.08503410134252       -0.94009933531899        0.13020912878411
H           -5.00087781547454        0.52764674539069        0.11622737617431
N           -3.04434846927035        2.14194186563536        0.03057852962871
C           -1.79075476733884        2.64359645005526        0.02648472677041
H           -1.64693991634257        3.70791470814403        0.04478890445160
C           -0.47977029994648       -0.39740199450437       -0.00779014022371
C           -0.12214827453067       -1.73255108591486       -0.00098967507405
C           -1.16471804274678       -2.67545840259255        0.01265059553156
N           -2.02958601789290       -3.43392417132356        0.03166580064840
C            1.22776583836480       -2.18686286250909       -0.00213877007862
C            2.38965192090149       -1.40739873425709       -0.00788501399915
C            2.64191267953057       -0.03585534793105       -0.01033672464480
N            3.94370689071059        0.34296081514882       -0.02057341770795
H            4.68016348957360       -0.33868860797111       -0.00158441922427
H            4.18478645679281        1.31914598996773       -0.00666739986403
H            3.29749209129179       -2.00449231230616       -0.00967652390194
N            1.39925232173195       -3.53222686946485        0.00834291653612
H            2.31734636715439       -3.93652405925698       -0.01145793832331
H            0.59936281085847       -4.14126896497831       -0.00512134801610
