23
 energy: -40.796564319460 gnorm: 0.000732928583 xtb: 6.6.1 (8d0f1dd)
N            2.94491638956924        2.44067992558904       -0.01452310204807
C            2.11470962034156        1.36925927201769        0.00008398359173
N            2.77800967427932        0.21609023043052        0.00228883732759
C            2.34962691903972       -1.03789699924415        0.01609385579195
N            1.12781592863371       -1.60597616172432       -0.01202992780275
C            0.05729595338606       -0.86998055982912       -0.00642306688874
C           -1.34658735628339       -1.09507284074142       -0.01967989582879
C           -1.58132675086056        0.35818582076069        0.02379296564183
C           -2.96382694995990        0.50614583277195        0.02388995806818
N           -3.73446597989212        1.63642283582808       -0.00761075280777
H           -3.33450053916398        2.47161687171543        0.38688055121457
H           -4.70767258305927        1.47652906797203        0.19986189283266
N           -3.54843509683840       -0.72249322995054       -0.01674680888213
C           -2.60192883323583       -1.67739588964690       -0.04759994047604
H           -2.89322330573099       -2.71111022538681       -0.08111289717527
C           -0.17841424009838        0.60419344749332        0.03049702994000
C            0.72409611068400        1.62746395301664        0.03332708147853
H            0.39533727651209        2.65881023330639        0.04406257799319
N            3.34295360322468       -1.94913600957654        0.05079984601089
H            3.10278436895521       -2.92365817207398        0.04948091398512
H            4.29844405601748       -1.64377165002091        0.06664538700585
H            3.93167415521633        2.27323965013001       -0.09784326670631
H            2.58755216706338        3.37368411946288       -0.10507580606621
