23
 energy: -41.575954978183 gnorm: 0.000941991292 xtb: 6.6.1 (8d0f1dd)
N            3.80547628600255        2.48900076997451        0.15030525145239
C            3.07889544279972        1.60006750403331        0.08213364830248
C            2.25112821351736        0.48369360531063        0.00830288598936
C            0.90651126411921        0.31866957290627       -0.03625601937325
C            0.66739839978299       -1.11834174052102       -0.06071610481672
N            1.81963892079505       -1.84187673193970       -0.05635879905733
C            2.76625499429119       -0.93057068808429       -0.02231305287336
N            4.07701223767434       -1.21599725353585       -0.03761605816824
H            4.36263566148009       -2.17752661763579        0.01030569744798
H            4.75361375000969       -0.48575541817275        0.09663173656867
C           -0.70999628014619       -0.93600533660357       -0.01762812479234
C           -1.90357716429049       -1.70017481678506        0.06936785210977
C           -3.12814057584594       -1.13988938218405        0.09635612586429
C           -3.50636078112137        0.28661172796297        0.01300745056702
N           -2.82284823930692        1.37747279366065       -0.02527686750162
C           -1.46086632719400        1.52558965911628       -0.00391032308072
C           -0.56871785076400        0.53017036243491       -0.01803920261981
H           -1.14821034102511        2.56190525470144       -0.00072299528579
N           -4.86089982434736        0.46967104913201        0.02450706503647
H           -5.18254141569251        1.40999223636548       -0.13133881270069
H           -5.48576592695764       -0.28579288360297       -0.18959827718083
H           -3.98038788062897       -1.80343266344389        0.17915958789399
H           -1.80421031655150       -2.77665085758947        0.12422622961844
