21
 energy: -38.934587954465 gnorm: 0.000134564479 xtb: 6.6.1 (8d0f1dd)
N            5.65514123542922        0.09274334272264       -0.00041625148615
C            4.50888534143938        0.05768219202418       -0.00024332415546
C            3.09270630176935        0.00494481432159       -0.00010206979063
C            2.55330655618206       -1.31461097270149        0.00010298180569
C            1.23976935432897       -1.70420743700413        0.00022482420817
C            0.19482614250323       -0.77365412605957        0.00017740847442
C           -1.22353165083704       -0.74210524008690        0.00022677791476
C           -1.20796727523684        0.72317316114767        0.00006847265844
C           -2.49687325615696        1.18411553588807        0.00014086715764
C           -3.32010862072446        0.00668135470432        0.00033245600368
C           -4.72062533758515        0.03196218014708        0.00057456112124
N           -5.86888840354217        0.05172346480974        0.00053376313441
C           -2.54292397704794       -1.17177033802987        0.00039232394082
H           -2.93439530736706       -2.17201551900211        0.00053983096297
H           -2.86954174156795        2.19118192028997        0.00007867337471
C            0.23504213188973        0.69472867469424        0.00001850729319
N            1.17711793847029        1.59463043854018       -0.00015554127647
C            2.46280592771894        1.25042749810578       -0.00021073928282
H            3.12297314819733        2.11364402782544       -0.00035871006630
H            1.00031102742881       -2.75832707986657        0.00031761868015
H            3.30109182400825       -2.09984832927026        0.00013747082753
