28
 energy: -53.790439478798 gnorm: 0.000893385015 xtb: 6.6.1 (8d0f1dd)
N           -2.45462883391800       -4.18797363479905       -0.01053956890971
C           -2.46981600624268       -3.03839355728797        0.00143381839079
C           -2.40025653534144       -1.64368637524815        0.01095559239373
C           -1.25240101908426       -0.86790655099264        0.02039517603702
C           -1.61421872679375        0.49973353057883        0.01874910525629
C           -3.02973031884786        0.59241304446339        0.01070329184313
C           -3.75465261573482        1.78454859309540        0.00429610722120
N           -4.26759910306470        2.81396046952880       -0.00192665118411
C           -3.50410583876282       -0.72178833846771        0.00797100675849
H           -4.53702350831560       -1.01438173116341        0.00474510436763
C           -0.21805072733001        0.88081247948632        0.01144925728516
C            0.55563487256338        2.07442356067429       -0.00627194144642
N            1.86776631832578        2.11996888406396       -0.00398440840503
C            2.76783750992885        1.13261233922321        0.00607060664627
N            4.03065565779943        1.62440561604899        0.02003497858875
H            4.83393196816638        1.02134354734385        0.01809133201214
H            4.14330535201871        2.62182947707184        0.01220932788795
C            2.63160999004512       -0.28199553405881        0.00079225545108
C            3.83346788367928       -1.01079434954261       -0.01148718165591
N            4.81193573564787       -1.61719417581220       -0.03019833737537
C            1.44112525469896       -1.06962542047009        0.00759474173556
C            0.19788417232368       -0.46687419814251        0.01592168615379
N            1.52364536204813       -2.42328435662382        0.01907091585473
H            0.68168624557945       -2.97075277780916       -0.00846967095940
H            2.41394637033409       -2.88675814975612       -0.02233686512872
N           -0.10120798438183        3.24852714502192       -0.02638885121729
H            0.42204498788189        4.10611966024560       -0.03947536176985
H           -1.10667159122051        3.27254893803333       -0.02695208693193
