25
 energy: -40.210182391423 gnorm: 0.000912396342 xtb: 6.6.1 (8d0f1dd)
N           -0.35080418640047       -2.97471831281290       -0.04914924386159
C           -0.71103374411898       -1.65728178562474        0.00229264733807
C            0.35048938232564       -0.70271299608855       -0.03740950214782
C            1.75972213514084       -0.71308550025755       -0.07848560541404
C            1.78416277279326        0.73372502913034       -0.00830779922660
C            3.06839530487712        1.15555835794026        0.03739308783743
C            3.88336817038087       -0.04732904594771       -0.02704280744748
C            3.09898446127528       -1.17362338667419       -0.09235678774333
H            3.45020669521808       -2.18912366052904       -0.15025547794826
H            4.95881611076768       -0.03273628613782       -0.02100865213484
H            3.46775725144015        2.15294689465615        0.10935936086799
C            0.28422586856868        0.72931504090652        0.01751305128089
C           -0.76753612247840        1.59686310549134        0.06347312930706
N           -2.07433207717121        1.24136575319279        0.01923413973734
C           -2.59446697893961        0.04780444347051        0.02132465726904
N           -3.97174928940037        0.05912825196979        0.06710038472798
H           -4.47594275842641       -0.73339621155543       -0.29118247648953
H           -4.39024223198022        0.96211160290460       -0.08354194373623
C           -2.02447125974569       -1.27199748823593        0.03870453610394
H           -2.75788373738675       -2.07037634545464        0.07422617851473
N           -0.56052158208920        2.95798922162643        0.19590503547652
H            0.33756315517834        3.29458646063680       -0.11096083383523
H           -1.35222267618354        3.52795894189689       -0.05378659136441
H           -1.02889082587876       -3.67745476520987        0.18924108117140
H            0.61566486503372       -3.18973836789398        0.12767607091707
