28
 energy: -48.174491176452 gnorm: 0.000830581128 xtb: 6.6.1 (8d0f1dd)
N           -4.27749925535266       -2.05957303777932        0.03314086169654
C           -3.34497267860255       -1.38048240704910        0.00755768538051
C           -2.21329055323611       -0.55589545643138       -0.01816942028545
C           -2.45985288981396        0.81561987891418        0.02910547384253
N           -1.64169262780465        1.89899994414508       -0.03258571305064
C           -0.34433368809313        1.95706686205049       -0.02562122343609
C            0.55342561544747        0.83867559153405        0.04685879018858
C            1.92822323903167        0.61557030111069        0.08956770179083
C            1.70705285137458       -0.83378946845743        0.02044342099975
C            2.88795303240689       -1.45999434896496       -0.04832910685418
C            3.91133958491213       -0.39018236264942        0.00731497170475
C            3.32343040553180        0.85253895918515        0.08492966658980
H            3.84085518687298        1.79282678695132        0.13766489581736
N            5.25198229189510       -0.68180820344096        0.04517890831034
H            5.53048928792871       -1.56898150864895       -0.34175723532663
H            5.88311964330990        0.07986510148716       -0.14499182739512
H            3.12940325166805       -2.50542966782274       -0.12895259619006
C            0.22838078312892       -0.57863334812056        0.00404390006333
C           -0.93371410901105       -1.25434591163189       -0.06233127306145
N           -0.96205240516991       -2.63372747868522       -0.22652818112794
H           -0.10511101713787       -3.09992948054604        0.02641487361558
H           -1.79943845716086       -3.09887179894223        0.08994568362216
N            0.21731060922202        3.18219525716096       -0.10600422007017
H            1.21647238746043        3.27563740457608       -0.07730235903661
H           -0.37115841816775        3.99449687672329       -0.15177634206694
N           -3.75455034181285        1.22952224943217        0.17004778238383
H           -3.93092131103070        2.20970627652240        0.04157954002466
H           -4.50872648849686        0.57441404657768        0.05882596227030
