27
 energy: -50.080394325259 gnorm: 0.000622365604 xtb: 6.6.1 (8d0f1dd)
N           -5.63360994938758       -0.31269551901793        0.01275990306244
C           -4.49421959689142       -0.16332987537872        0.00866442282800
C           -3.09254765933132        0.02618800953270        0.00230794904553
C           -2.37794907670945       -1.16881581386455        0.00451741179304
C           -0.99996460473786       -1.39400743664096       -0.00063985374996
C           -0.49203433752077       -2.70924303827503        0.00947616524095
N           -0.00617174200895       -3.74967146583405        0.01958773204553
C           -0.06054807339280       -0.36576963630706       -0.01044467836097
C            1.33976834142395       -0.21743146462856       -0.01402156228812
C            1.19654889887284        1.24532718383424       -0.00811162784064
C            2.44717503824776        1.81130796308628        0.00453780631653
C            3.37293063830959        0.72690393866712        0.00429830277029
C            4.76134279950062        0.84995670097469        0.02284300735360
N            5.91028693524685        0.91609884260324        0.04254139288362
C            2.69756842935785       -0.54143823536205       -0.00769856320810
N            3.28126119268042       -1.75392832298326       -0.03419582786942
H            4.28140522264883       -1.83119308399756        0.03175117610151
H            2.71735829639949       -2.58454266311223        0.01788169503271
H            2.73152191028531        2.84782769994907        0.01471107292697
C           -0.23183867135843        1.09781059812201       -0.00836435769837
C           -1.35094902943963        1.88192450997758       -0.00539405417759
C           -2.67098790723733        1.39875919055079       -0.00247341328117
N           -3.65371907128954        2.32521952454781       -0.00206853171331
H           -3.42579221988062        3.30351795194151       -0.00424418097504
H           -4.62205954340568        2.05054965267973        0.00139198678526
H           -1.22420878386729        2.95702925892308       -0.00509026243410
H           -2.99435314931489       -2.06216651788784        0.01151370641080
