22
 energy: -41.897188488078 gnorm: 0.000705737525 xtb: 6.6.1 (8d0f1dd)
N           -5.71462330539389        0.00066129724103       -0.00013948854611
C           -4.56538513354318        0.00050642137521       -0.00003408354015
C           -3.16491215465016        0.00031069374285        0.00013793224978
C           -2.36869435061300       -1.17843414286053       -0.00052878906538
C           -1.06656632710461       -0.73494432522743       -0.00009726270019
C           -1.06636392223031        0.73498705623398        0.00084367670578
C           -2.36836949703175        1.17883587331627        0.00097789511137
H           -2.75106930146058        2.18223327407433        0.00157071263887
C            0.36035577759155        0.74308497009881        0.00092685445516
N            1.31049579028511        1.63456863988890        0.00149823216612
C            2.59308783566863        1.20907873948880        0.00124759248381
N            3.14306945406469       -0.00055764956805        0.00046596274340
C            2.59275509607219       -1.21004274151723       -0.00032539234639
N            1.31004609185647       -1.63517994743648       -0.00060758240084
C            0.36015119255801       -0.74343503858360       -0.00002647962839
N            3.47943224071427       -2.21443822641350       -0.00099230223484
H            3.13880731832463       -3.15973893782248       -0.00161263856865
H            4.46293547246709       -2.01144077129090       -0.00086340818257
N            3.48004101219138        2.21323046768068        0.00191482331681
H            3.13967588957972        3.15862479130772        0.00248686962820
H            4.46348841489930        2.00996275305951        0.00175679758011
H           -2.75167040144553       -2.18172612418789       -0.00121867706592
