20
 energy: -38.400126488870 gnorm: 0.000575449527 xtb: 6.6.1 (8d0f1dd)
N           -4.54646865846913       -1.52035234422051        0.04010349256102
C           -3.52067992393530       -1.00655569889152        0.02517317806443
C           -2.25237606646630       -0.38498121550664        0.00129546024752
C           -2.25269758665241        0.99337750240035       -0.05277415721562
N           -1.28119217310287        1.91200604295104        0.05548967669789
C            0.00662666028381        1.75237095286359       -0.02608369427069
C            0.64179463970064        0.51209713831981       -0.42306456746742
C            1.94187754389431        0.09516322025279       -0.70936087342550
C            1.54119877571788       -1.22135636499117       -0.18385827607623
N            2.56402625193666       -1.72799352551459        0.43320962216985
C            3.59246331692765       -0.85636981822467        0.11645864199814
N            3.26974887864345        0.25406127968490       -0.50870838373086
H            4.59606907736561       -1.06619766878068        0.43265378353155
C            0.11615112849500       -0.82389591194635       -0.18758958747024
C           -1.11959704978997       -1.27821162706265        0.04939969879786
H           -1.30366927184636       -2.32307371687559        0.25113379219510
N            0.80867119916616        2.79896511859959        0.22626208089850
H            1.80221258093858        2.71927489338664        0.09144703663735
H            0.39957564303791        3.67887070052674        0.48969058755493
H           -3.22917569554508        1.46602202382879       -0.11704255849761
