23
 energy: -37.582343055595 gnorm: 0.000786976649 xtb: 6.6.1 (8d0f1dd)
N           -5.23411171876979       -0.33634865372306        0.01797285877211
C           -4.09091877878464       -0.22513170151266        0.01093358644240
C           -2.68281263782382       -0.08803205525833        0.00256049514573
C           -1.98367310221751       -1.29789796828748       -0.01915635432325
C           -0.61135080870233       -1.53001297259699       -0.02812080739967
C            0.32596981073944       -0.52461222397700       -0.01852883105989
C            1.74777754420945       -0.36999797855047       -0.02064003180449
C            1.59386710654259        1.08029791351444       -0.01385927585986
C            2.86673975274251        1.65814676015396       -0.01378991746540
C            3.77379211721642        0.60465067691097       -0.01719609611343
C            3.10550417693060       -0.66526610125445       -0.01779882335026
N            3.72693708288073       -1.87299660990916       -0.06801340154710
H            3.18884530813829       -2.69738527907560        0.13662143078882
H            4.71082097062696       -1.90904564286217        0.13910181059719
H            4.84433439955559        0.70894313406342       -0.01793981028163
H            3.12393267450835        2.70192239622906       -0.01188965967251
C            0.18454847578779        0.94316481125302       -0.00522700429216
C           -0.94870952290048        1.74738401099356        0.01472695896089
C           -2.23305584021056        1.25502854043490        0.01836834598337
H           -3.03219718270802        1.98807065340951        0.03433618801849
H           -0.80965163111161        2.82020178987249        0.02695975073935
H           -0.27358162125438       -2.55780916974640       -0.04404755097355
H           -2.61349219879556       -2.18112898348161       -0.02862773770514
