26
 energy: -50.359590647506 gnorm: 0.000904961773 xtb: 6.6.1 (8d0f1dd)
N            5.96131123081367       -0.03177787857210       -0.04252795333408
C            4.81283628950856        0.02848244453585       -0.02224494780676
C            3.41688889002024        0.03938916620667       -0.00576906248130
C            2.59548536247142        1.19169641712543        0.00638950449582
C            1.29624794930361        0.72757801980836        0.00774533247469
C            1.31219851401240       -0.74815518018932       -0.00316078600628
C            2.63393908816819       -1.17571170196530       -0.01256033196178
N            3.14445747499837       -2.42308098175619        0.00808383908657
H            2.53398514763337       -3.21170777437172       -0.10921556351525
H            4.13605919254001       -2.55312757936492       -0.09957148966676
C           -0.10354394739918       -0.76569599642832       -0.00162038676172
N           -1.01437711767509       -1.69961985703762       -0.00577954003348
C           -2.32187086771001       -1.43529709102232       -0.00210353904227
N           -3.08254880907970       -2.54167043453483       -0.00050407642277
H           -4.08783677358591       -2.49269037339583        0.00339277729904
H           -2.61499386367978       -3.43220927795026        0.00121604753681
C           -3.00805542549164       -0.16657210867108       -0.00221577463448
C           -4.41765527267138       -0.26381711626880       -0.00578539681336
N           -5.56277881629766       -0.35914396782782       -0.00715476598511
C           -2.52135243215851        1.13720313370711        0.00062554814906
C           -1.19835416676261        1.59732175532413        0.00579265287481
C           -0.96274415094689        2.99020664961671        0.00803044598824
N           -0.76440445525496        4.11979744954064        0.00886987888604
C           -0.12021135503713        0.72257884197284        0.00718849373514
H           -3.28481203309478        1.90838159408892       -0.00068466962245
H            2.95496321607532        2.20397467312973        0.01222696326163
