26
 energy: -44.763253135367 gnorm: 0.000748973626 xtb: 6.6.1 (8d0f1dd)
N            5.56794211175181        0.47815214710816       -0.04591125372110
C            4.41606671851949        0.45783213213983       -0.01313230545532
C            3.02647618927075        0.38580230830350        0.00656653920547
C            2.30651525000977       -0.85767060778832       -0.01046245640801
C            0.96787463626560       -0.50019310019427       -0.00871970274997
C            0.87246936770784        0.96013142983677        0.00813084637254
C            2.13731611695112        1.49677903024266        0.01811110630361
H            2.44787461008106        2.52593081188684        0.02981889412393
C           -0.55852406220554        0.86994993970588        0.00126077740915
C           -1.65301289721041        1.68217124507458        0.00198919194578
C           -2.97749788259583        1.18013550444644       -0.00889356546333
N           -3.44076442841005       -0.06386834401817       -0.00545364563740
C           -2.81291046008246       -1.23444784138396       -0.00953661253422
C           -1.43525106829112       -1.55494287695884       -0.02025205456484
C           -0.45678083118046       -0.60251947541222       -0.01326400819260
H           -1.16698530879700       -2.60322994632304       -0.02663459530755
N           -3.68066827868811       -2.27695562999375       -0.01754464165710
H           -4.66323158043483       -2.07735531236305        0.03822544478288
H           -3.35876634495810       -3.22425375509880        0.05252780158578
N           -3.97453847243181        2.09829437767441       -0.02671903390189
H           -3.77928352646591        3.08117200440017        0.01682636728770
H           -4.92424789087130        1.77317036171477       -0.00495558864278
H           -1.52417345312272        2.75613747531929        0.00967026723529
N            2.88864065483658       -2.09739542613436        0.04654940575205
H            3.87018499915495       -2.13528524846466       -0.18074325842821
H            2.33830368039603       -2.87594733712044       -0.27542332224040
