22
 energy: -37.084617086527 gnorm: 0.000360546307 xtb: 6.6.1 (8d0f1dd)
N            2.95302044864417        2.15314848475515       -0.00111580387510
C            1.97955301721230        1.21505347258556       -0.00124012455709
C            0.64009389850100        1.67168051539594       -0.00149542602411
C           -0.40018773889096        0.78677852206836       -0.00132157349858
C           -1.83348625142445        0.75186781520831       -0.00125454186321
C           -1.81005343319551       -0.71168029550817       -0.00077312099063
C           -3.11820785042590       -1.16780488226537       -0.00054312622123
C           -3.91992598453673       -0.01592245477621       -0.00088408778664
C           -3.14611225656072        1.16704526170241       -0.00133516134413
H           -3.53946146703685        2.16773912755490       -0.00166498449051
H           -4.99677340936887       -0.02796455591342       -0.00083262887034
H           -3.47650737811269       -2.18080750669988       -0.00017593857283
C           -0.38780870582141       -0.69052857563329       -0.00089979049198
N            0.56653869484178       -1.58277087063396       -0.00082936061212
C            1.85523516532296       -1.20003395883348       -0.00117573791194
N            2.47058922664323       -0.02229262308972       -0.00118600523038
N            2.70543027619522       -2.24415517798469       -0.00147436650695
H            3.69548502781102       -2.08042448042926       -0.00167879908663
H            2.32564734494405       -3.17355754899010       -0.00138620037793
H            0.45973069188534        2.73816340745210       -0.00170465083714
H            2.73549969307421        3.13246642685518       -0.00103378945085
H            3.91000301419877        1.84849082807963       -0.00084432439969
