22
 energy: -41.859796174235 gnorm: 0.000388972756 xtb: 6.6.1 (8d0f1dd)
N           -1.96863573575836       -3.33101820618414        0.00290557221501
C           -1.96471931542113       -2.18252697464965        0.00166514294990
C           -1.87087868374885       -0.77610158469086        0.00194585624548
C           -0.60833352632703       -0.20142698287940        0.00185418542525
C            0.75357972286441       -0.52016964358980        0.00092730445858
C            1.12445982371585        0.90203436737851       -0.00113763610507
C            2.53243569017169        0.91669753514536       -0.00349822110477
N            3.00723557849078       -0.35602880642200       -0.00308397842583
C            1.97511318234084       -1.22972548812333       -0.00052793838713
N            2.17321064630752       -2.55166619010001        0.00073820719581
H            3.11373381816472       -2.90481240739095       -0.00219924921603
H            1.39227434951133       -3.18352509764617        0.00056457379820
N            3.36935391931469        1.95963342454534       -0.00583892806836
H            4.35916651838898        1.78823739807386       -0.00747206504722
H            3.01195252911603        2.89732185359820       -0.00628758911660
C           -0.23500499851842        1.27181493881719       -0.00022654370961
N           -0.93992881346966        2.36680247869478       -0.00066857950302
C           -2.27022021639069        2.31403623865548        0.00103033724563
N           -3.16127248482537        1.34214529714118        0.00069533954797
C           -3.02414239647229        0.03130084928681        0.00031460853582
H           -3.97821260864465       -0.49179939886470       -0.00134837497229
H           -2.72749766531040        3.30120289250425        0.00231469633829
