24
 energy: -42.115610908049 gnorm: 0.000610162149 xtb: 6.6.1 (8d0f1dd)
N           -6.13230623226976       -0.18911225334678       -0.00075575224918
C           -4.98480499734089       -0.11485140295547        0.00076156952065
C           -3.58991334126316       -0.02938222077725        0.00017495191497
C           -2.85851870554219        1.18570690093598       -0.00007425276127
C           -1.53008637294856        0.81138957733066       -0.00002974543782
C           -1.45031011295482       -0.64618386701338        0.00014715129867
C           -2.71867469772888       -1.16488543472050        0.00019701384550
H           -3.04802960977967       -2.18755564546507        0.00038136084429
C           -0.00775683346381       -0.56347149008477        0.00036208542179
C            1.05458021930860       -1.42334069434006        0.00060734006758
C            2.40492438845414       -1.02681254854408        0.00081021846463
C            2.90230403916393        0.31660264179634        0.00078090047579
C            4.30973464746241        0.42869100442115        0.00175702440157
N            5.45726264937148        0.50560948193437        0.00049370840816
C            2.23961180572804        1.55001937410523        0.00054068501110
C            0.88967582345008        1.85511976030988        0.00025307999646
C           -0.10043562297424        0.89194281450735        0.00018713309243
H            0.60091555472881        2.89643432251707        0.00013919528332
H            2.91264802476476        2.40125090682018        0.00064110541652
N            3.32451212402319       -2.01009118754612        0.00106951704931
H            3.03669168768093       -2.97301092822044        0.00108796502490
H            4.30854102433517       -1.79537695228200        0.00121585755791
H            0.85638052170948       -2.48745600123410        0.00068010381023
H           -3.29442488581500        2.16745807515181       -0.00012514335757
