22
 energy: -37.847405038478 gnorm: 0.000847800448 xtb: 6.6.1 (8d0f1dd)
N            4.29504827431571        1.18927540956839        0.21592566928932
C            3.29905434422774        0.62297370258762        0.12706163880717
C            2.06010309148083       -0.04583592035964        0.01935498817806
C            0.93548679044660        0.77163754313358       -0.03356197354707
C           -0.36660962085569        0.22161085536755       -0.22429255360061
C           -1.65690028898721        0.75639162400752       -0.38213050705416
C           -2.19710772106556       -0.57408399980996       -0.09296023159750
N           -3.41984402344094       -0.53070757695150        0.33087266829683
C           -3.78186381639781        0.80435589434623        0.18909119872214
C           -2.74860517936045        1.63259459198757       -0.19804820378762
H           -2.80639857017921        2.69091331588237       -0.36614015498734
H           -4.79230554661255        1.08452683396025        0.42222749276837
C           -0.82905522963362       -1.14774744126482       -0.10884720681794
C           -0.20002282417785       -2.33444586534362       -0.02989852016649
C            1.22144037391040       -2.45444742188317       -0.04813803471603
C            2.16571871588720       -1.47590698557634       -0.03280709621068
H            3.19663639262412       -1.81201565159244       -0.03127540113742
H            1.59435352104102       -3.47032583980430       -0.05284176610138
H           -0.78182096244643       -3.23988774561058        0.05670571794881
N            1.02600591528268        2.12050404718906        0.04492985499723
H            0.18904690504970        2.67252205347692       -0.00298192044482
H            1.91530829849120        2.57123300898938        0.17542724026099
