26
 energy: -44.729410744063 gnorm: 0.000625018943 xtb: 6.6.1 (8d0f1dd)
N           -4.67375721859829       -1.57011807314707        0.10290362362958
C           -3.69222939796224       -0.97429315322062        0.04150761490859
C           -2.47596097693451       -0.26388749686955       -0.00847290919862
C           -2.60185148682260        1.10397079315701        0.02681692330550
N           -1.73626933218451        2.13660117328846       -0.01609270973263
C           -0.43442637566087        2.08676295104540       -0.01427170551311
C            0.37223155646379        0.89512130601473        0.05415482822367
C            1.72491461144973        0.56555035181879        0.09946201147159
C            1.39203352227788       -0.86116459194352        0.02218099848908
C            2.52246429525844       -1.57776249531858       -0.05613198196229
C            3.62306576450381       -0.59339783308154        0.00511853459130
C            3.13338281231310        0.69258950447277        0.09341215859578
H            3.72320944278125        1.58860739084911        0.15201202783315
N            4.93634261433697       -0.98555317875636        0.03698851941385
H            5.14816663374521       -1.89072371035549       -0.35008765871114
H            5.62498017574271       -0.27296577477894       -0.14231001383160
H            2.67931078838545       -2.63831333540893       -0.14715135275850
C           -0.05767936963035       -0.49571319588588        0.00500935387870
C           -1.26887822795146       -1.08420439287509       -0.05580655836379
N           -1.41437486388545       -2.45528388633741       -0.21502945833316
H           -2.29099375588343       -2.84755982869957        0.09300773825932
H           -0.60148729633691       -2.99619211395267        0.03432107680947
N            0.22514239296900        3.26078451706612       -0.08535327414924
H           -0.30217817910086        4.11470017074758       -0.13579281164491
H            1.22826544504216        3.27844696857294       -0.06430709041294
H           -3.62391562361842        1.47178798689846        0.08384828670200
