25
 energy: -45.818224169905 gnorm: 0.000646913524 xtb: 6.6.1 (8d0f1dd)
N           -4.50035842528921       -2.66430358996874        0.01153487574988
C           -3.72141609128820       -1.82064198183356        0.00550663039686
C           -2.75595725887551       -0.79070410699264        0.00012870867184
C           -1.37855589757444       -1.24001082300057       -0.01029439915365
C           -0.36606652635608       -0.36539694324585        0.00958737640200
C            1.12146608992813       -0.33168967880951        0.02039390594473
C            1.07583493084806        1.12820767197760        0.04752850538798
C            2.39416235791778        1.62431872782124        0.06147573566237
C            3.22060197252615        0.51575450928548        0.03494346758616
C            2.41640511882907       -0.73419168736499        0.00224446597498
C            2.98346923708479       -2.01047205309864       -0.02666970963725
N            3.48920614074386       -3.04205486759303       -0.04047128505077
N            4.57523883689573        0.48383124179988       -0.01779074968593
H            5.09218519312830        1.32521252138140        0.16718149526831
H            5.04439386288584       -0.39373728447220        0.12866696125326
H            2.72335825005276        2.64569536648483        0.08739277705255
C           -0.32279255722285        1.09300737925082        0.02888629052454
C           -1.42438067735883        2.02377143172205       -0.00439455935654
N           -2.68875689252706        1.71633588249181       -0.00901498381216
C           -3.25391164176053        0.49106913647742        0.00942095692247
H           -4.33781770536875        0.57396560097624        0.02461650033507
N           -1.10951322672449        3.33541580762253       -0.03427553738055
H           -1.85207839526228        4.01148366792742       -0.07117129684156
H           -0.15054001461396        3.63028572741810       -0.04005412782729
H           -1.20033249571817       -2.30519394945677       -0.02458778218723
