30
 energy: -57.254071441582 gnorm: 0.000381318218 xtb: 6.6.1 (8d0f1dd)
N           -5.56116305568267       -0.55569118670762       -0.01589398518431
C           -4.41251643543329       -0.46790460606028       -0.00665230325841
C           -3.00819466432678       -0.36420944570494        0.00386641884160
C           -2.33984069430852       -1.63041076979299        0.01806273163122
N           -1.04066875973340       -1.93617643147117        0.02402752723202
C           -0.10588043972167       -1.02949123644218        0.02402506890564
C            1.30341755610214       -1.01852262040778        0.02306898229230
C            1.29116336920010        0.46507631833052        0.02531519750002
C            2.60033385696566        0.92962739753478        0.01580235594639
C            3.41755265134733       -0.25062447837974        0.00558887206788
C            4.80886353026034       -0.23931600657820       -0.00799742774231
N            5.96087737294573       -0.23505060188011       -0.01847251611671
C            2.62561040942695       -1.44755847411075        0.00927441629519
N            3.12213881116871       -2.70656106547871       -0.05406909520818
H            2.50273444594148       -3.47550829964946        0.13058072689319
H            4.10667646873756       -2.84401018382901        0.09964397318591
N            3.05519372703145        2.20223998928754        0.06697543486102
H            4.03305260524828        2.37979247291925       -0.08555729082728
H            2.40509731822039        2.95797242974002       -0.06278606366361
C           -0.11379986458173        0.47068696188101        0.02183191017637
C           -1.16121883857832        1.37252037382616        0.00288238711029
C           -0.83608596827244        2.74009854919070       -0.01994995116690
N           -0.52674324256988        3.84792067409448       -0.04500670767740
C           -2.52449224082377        0.96901938518886       -0.00416507249008
N           -3.44101841524373        1.96386238205694       -0.02099570661605
H           -3.13765791110267        2.92264664935479       -0.02735707978685
H           -4.42518029657451        1.75764901148341       -0.02808928734152
N           -3.11869308792217       -2.73403991946109        0.02681860495444
H           -4.12201005309107       -2.68004421575269        0.01170340217138
H           -2.65492989963009       -3.62509944038108        0.02672634211434
