23
 energy: -43.174383438160 gnorm: 0.000946056590 xtb: 6.6.1 (8d0f1dd)
N            4.95657421961941        0.00084140172409       -0.00104450274338
C            3.81033218922871        0.00066971866905       -0.00076228865900
C            2.39055492260910        0.00045646101799       -0.00039597650564
C            1.81403409927355       -1.27981082898829       -0.00016983883558
C            0.47181437340779       -1.64848124084284        0.00021512297976
C            0.14309752169120       -3.02410571314747        0.00078711744655
N           -0.14110105369730       -4.13473482232967       -0.00003429255184
C           -0.58245528095301       -0.72523610330018        0.00042385513766
C           -2.00929530145624       -0.73496025381295        0.00074569026682
C           -2.00951568941951        0.73455150682380        0.00061982925560
C           -3.32172571140233        1.16966944593229        0.00084618973313
C           -4.11060913485942       -0.00051929462446        0.00103272792508
C           -3.32137472904998       -1.17047157086694        0.00094512009338
H           -3.69252018041517       -2.17824650898124        0.00102016267874
H           -5.18572346086265       -0.00068051553284        0.00119530004580
H           -3.69317300783301        2.17733314138244        0.00087455930952
C           -0.58267301004206        0.72525556932867        0.00032971858514
C            0.47131951418261        1.64881767670403       -0.00001144509228
C            0.14218656215582        3.02434215000096       -0.00048230105185
N           -0.14234758580640        4.13488733223612        0.00057019003140
C            1.81365028821738        1.28055080089624       -0.00032335209249
H            2.52484861388126        2.10024590312410       -0.00057848354610
H            2.52547829733023       -2.09929262821289       -0.00030100751042
