28
 energy: -48.980384515580 gnorm: 0.000631171092 xtb: 6.6.1 (8d0f1dd)
N            3.77639724735158        2.85891382674629        0.04107765853392
C            3.50831775718395        1.73929754266686        0.02627861235479
C            3.07795967102402        0.41456438393847        0.00888345510677
C            1.72225942150401       -0.00577486931775       -0.00420065259944
C            1.69813270745190       -1.43413828902762       -0.01842609256468
C            2.97995068800850       -1.90947393016373       -0.01545173003505
C            3.83488909738642       -0.75999048121718        0.00165262272638
H            4.90855528296900       -0.79941274697103        0.00713523642069
H            3.33482643496125       -2.92513180403715       -0.02496744425741
C            0.19482850150232       -1.37703787859928       -0.03004202241485
C           -0.87743234127425       -2.23310271907764       -0.03571089948831
N           -0.65703946925262       -3.59119738490693       -0.11393326114441
H           -1.39901851660954       -4.20478771716021        0.17810862999139
H            0.27557023417278       -3.89901070272751        0.10650559714706
C           -2.21165588467979       -1.76445809732876       -0.03173594167626
C           -2.73434468418943       -0.48439766337977       -0.03772269269749
N           -4.10411820923070       -0.39372677755930       -0.11315553651104
H           -4.55076995837855        0.48843474694201        0.06924471622265
H           -4.64977796100407       -1.22120067544283        0.04757702804328
C           -2.05269908495901        0.78446761253016       -0.01582131563530
C           -2.88353729174363        1.92298177665762        0.00982262668895
N           -3.54005801298113        2.86743782956714        0.04430934994914
C           -0.68218925423019        1.06549932098773       -0.00847841442947
C            0.29372341408449        0.04071027355774       -0.01671810492214
N           -0.22267774868596        2.33693320630368        0.01884165022549
H           -0.85254828221900        3.12025232952463        0.00806975712004
H            0.76910152261102        2.50517263616237        0.00991620682547
H           -2.95746550457266       -2.55206669386692       -0.04326447348173
