27
 energy: -50.081684540010 gnorm: 0.000620529150 xtb: 6.6.1 (8d0f1dd)
N           -5.62161626581067       -0.79713431369743        0.00706677660492
C           -4.47352490046168       -0.74509516571013        0.00442239098466
C           -3.06087441317834       -0.67962131293782        0.00094631723284
C           -2.44961490249548       -1.94177217641498       -0.00179429690023
C           -1.11367654874073       -2.31117556417209       -0.00341229288383
C           -0.08110596302413       -1.40114483516230       -0.00608585819452
C            1.34638759964613       -1.35993650600117       -0.00530858071434
C            1.30034429610009        0.10979432883951       -0.01173014527057
C            2.59692061702415        0.60564466944100       -0.00613448802146
C            3.43677966078691       -0.57155975659641        0.00648124709612
C            4.82922245789091       -0.50481168292801        0.02623430894322
N            5.97589124125701       -0.40931955836430        0.04764777155849
C            2.66515343609598       -1.76122483479171        0.00749201818081
H            3.07758849049540       -2.75347475876993        0.01801798644525
N            3.03226943438756        1.87959848712811       -0.03846355296094
H            2.37391453488233        2.63648847341579        0.02641440112725
H            4.01516318063577        2.07484566989222        0.04221752382006
C           -0.11509334742235        0.07204962064140       -0.00913381979575
C           -1.15321197145702        0.98835500021445       -0.00018667061969
C           -0.77845053016990        2.34554271462426        0.01105815239399
N           -0.42459272494396        3.43941864210886        0.02311810461126
C           -2.53094363401978        0.64367770730976        0.00341092269281
N           -3.41146796542618        1.66497983981667        0.01023528902958
H           -4.40236934549817        1.48758188367859        0.01316329267024
H           -3.08157028949971        2.61587679099760        0.01203263357072
H           -0.87728188361041       -3.36565317716657       -0.00291010609528
H           -3.16032396834371       -2.76127882789536       -0.00134925110564
