21
 energy: -38.148184313064 gnorm: 0.000745361651 xtb: 6.6.1 (8d0f1dd)
N           -4.63014796724649       -0.54074997670532        0.00159080242708
C           -3.48191958459462       -0.47746959973789        0.00015364374176
C           -2.07716827333597       -0.35511542602182        0.00046772631809
C           -1.38087781380588       -1.56611070322335        0.00007366435422
N           -0.08773804449704       -1.84996233963541       -0.00034353256172
C            0.78779786723976       -0.86853937420675       -0.00043084118326
C            2.20399150240675       -0.75327168161832       -0.00095967165256
C            2.08912933333860        0.71596110953525       -0.00062004894486
C            3.36308170041264        1.24933208756683       -0.00118395476983
C            4.23882516694504        0.14457835352680       -0.00186167187271
C            3.54610373885850       -1.08174700218908       -0.00172537949590
H            3.99810806711259       -2.05582970341768       -0.00215035636857
H            5.31186268512487        0.22923300176296       -0.00243457129297
H            3.65966749848528        2.28162012013867       -0.00115152115080
C            0.67268816421877        0.60991636081618       -0.00008531666721
N           -0.33274396996148        1.45381661153362        0.00039728172460
C           -1.58910777998582        1.00919980327343        0.00064472948674
N           -2.50324771622409        1.98482450652519        0.00106576927708
H           -2.17314132237436        2.93578167763087        0.00117370261904
H           -3.49028010630080        1.78415516872925        0.00125218355270
H           -2.00542435731625       -2.45562746538345       -0.00000899984097
