26
 energy: -50.339560835975 gnorm: 0.000925581217 xtb: 6.6.1 (8d0f1dd)
N           -4.19456568532906       -2.94873594628880       -0.00305650969523
C           -3.36552385591301       -2.15411636358449       -0.00118359493104
C           -2.33058970099254       -1.18745958995641       -0.00133842125418
C           -1.06980052035508       -1.71561016149213       -0.00360397479627
C            0.11247938425763       -0.95768439595304       -0.00383125446775
C            1.49142900007659       -1.17014298463294       -0.00596452069881
C            1.75740174503481        0.26592440430505       -0.00530982258600
C            3.10340981814620        0.40697787119540       -0.00827168321362
C            3.95812005474048        1.50657956942328       -0.01094476943878
N            4.70997339002967        2.37601825040477       -0.00922356894899
C            3.59242045825478       -1.02267293260619       -0.01030289943693
N            2.62315339771032       -1.91380387963187       -0.00890462349472
N            4.89079826917468       -1.33534611974596       -0.01341148256750
H            5.59125441001112       -0.61486094604362       -0.01489609140727
H            5.16005838394280       -2.30332371905175       -0.01504019180813
C            0.28774362086618        0.50572188667532       -0.00242866155418
C           -0.56765644481732        1.52474277667633        0.00007891464741
C           -2.01124381714302        1.35948619891242        0.00225499746750
C           -2.71074296465233        2.58226220470540        0.00546927562498
N           -3.28221330447659        3.58040186609131        0.00830217038838
C           -2.78432319032811        0.21122216411438        0.00169606738806
N           -4.13844863946096        0.34962447199473        0.00410279589621
H           -4.54470629107176        1.26942354708016        0.00639832722204
H           -4.74383630571136       -0.45192000178002        0.00406191429440
H           -0.21084463734046        2.54494390225925        0.00062970885635
H           -0.97163752865364       -2.79462130827051       -0.00532246858591
