21
 energy: -38.127554302885 gnorm: 0.000519694518 xtb: 6.6.1 (8d0f1dd)
N            4.36731224529814        1.58464433197608        0.00482354016173
C            3.50690499217427        0.82418991494175        0.00299431313978
C            2.46147625919923       -0.10598772584019        0.00008935902187
C            1.11539528581446        0.09899437339538       -0.00202740109251
C            0.44440449006334       -1.19103797067851       -0.00343472006103
C            1.43539688651250       -2.20937481558007       -0.00296813161562
C            2.64159742843254       -1.56543038125379       -0.00095727429068
H            3.61116817550308       -2.02868571683830        0.00000840946575
H            1.28750390384508       -3.27357124584766       -0.00403902198009
C           -0.80443070765187       -0.55659813324021       -0.00225773336623
C           -2.21043414640415       -0.88186785550933        0.00030347076102
N           -3.17435565527396       -0.00511597110922        0.00051405987958
C           -3.08068910824192        1.34622687358344       -0.00093749942401
N           -2.12966568086808        2.21712200952192       -0.00029363941061
C           -0.79069761676600        1.99215793422061        0.00040510754183
C           -0.21510960544200        0.77023903554004       -0.00138139949267
H           -0.19232830734996        2.89434243318514        0.00182495946759
H           -4.07333213018594        1.79340820899823       -0.00229239470778
N           -2.54751681482243       -2.18496510954678        0.00268638061330
H           -3.52164398472230       -2.43329546422990        0.00460545110796
H           -1.84190912251402       -2.89936930738861        0.00207792508086
