28
 energy: -53.806866019805 gnorm: 0.000683341521 xtb: 6.6.1 (8d0f1dd)
N           -5.76036071165290       -0.07702132682084        0.01973953055494
C           -4.61096499713202       -0.07461700463206        0.01246746156932
C           -3.19833705510155       -0.08192767060321        0.00286184315469
C           -2.62614262736691        1.18915397620923        0.00538354232046
C           -1.27538219166914        1.54848422277794       -0.00088497337153
C           -0.88651473853936        2.90327217138074        0.00857666232333
N           -0.49196015464051        3.98198211191252        0.01428314751966
C           -0.26353536275737        0.59571215570102       -0.01036612053127
C            1.13334798298994        0.50499390765762       -0.01264691541897
C            1.06299262041605       -0.97229509881638       -0.01221535129190
C            2.36145855084570       -1.47479850093633       -0.00726970066377
C            3.22213048525352       -0.32246000172018       -0.00548617206023
C            4.61233107539694       -0.39353799425228       -0.00311485270374
N            5.76210670772100       -0.45952087408677       -0.00530248992623
C            2.47411341981704        0.89817700218415       -0.00875045002161
N            2.98579819966818        2.14192867491854       -0.02687084209214
H            3.97975048242452        2.28055157653481        0.02688462337579
H            2.37278913375965        2.93709180136330        0.01789797656620
N            2.78703355071893       -2.75303113457173        0.02809186335991
H            2.12370865143674       -3.49887101362463       -0.07811850033303
H            3.76802424899791       -2.95300159866870       -0.06363122122382
C           -0.34603913488101       -0.90714827587077       -0.01145382962321
N           -1.32720964402924       -1.76389410464112       -0.01118974593346
C           -2.60938036923100       -1.39576374174700       -0.00644019837606
N           -3.45518972456028       -2.44601728676808       -0.01052159500098
H           -3.05602764955852       -3.36823715447004       -0.01201400659126
H           -4.45299008798414       -2.32161524176054       -0.00225503794938
H           -3.33513595664216        2.01019273125073        0.01430366876830
