25
 energy: -44.211642281658 gnorm: 0.000846509833 xtb: 6.6.1 (8d0f1dd)
N           -0.57009873413413       -2.88846364298793        0.02601754567234
C           -1.00160711803010       -1.59984863923677       -0.03683477230838
C           -0.01455585088524       -0.62461837742711       -0.40348272069701
C            1.34712546826278       -0.64250942576448       -0.69304691638399
C            1.39111565405130        0.77185472267998       -0.31781624822857
N            2.55072251625806        1.04946943118323        0.18585042489064
C            3.26914892958847       -0.14705671487421       -0.04628009241487
N            2.58878724949421       -1.18210136489188       -0.49928405780093
N            4.59344677293173       -0.16993793651154        0.22110429384560
H            5.02695517763081       -1.07483840687393        0.28544781163574
H            4.93794289775466        0.56285243142437        0.81701345024186
C           -0.09662583531699        0.82170712464385       -0.26905208166066
C           -1.12576366414613        1.65871895574786       -0.02555678293474
N           -2.44064013458789        1.27032998545758       -0.04000623234922
C           -2.91625449635522        0.06957304345023        0.03560720219374
N           -4.28767817976983        0.02363674114239        0.07929888919301
H           -4.75342033893308        0.89229247292019       -0.12291703914634
H           -4.76179036832460       -0.82254718331226       -0.18162838617873
C           -2.30076117985049       -1.23893283410999        0.16535666653435
H           -2.99586058727198       -2.03194825023106        0.41491411016732
N           -0.94741008739751        2.99849482384949        0.25952257512735
H           -0.06650124727775        3.39082298156491       -0.03215080867858
H           -1.75903342340633        3.56998976136862        0.08916875901117
H            0.42287104398348       -3.04637297818740       -0.01256333632988
H           -1.15165532926794       -3.59608252162433        0.43835002349899
