25
 energy: -41.019879452823 gnorm: 0.000668948499 xtb: 6.6.1 (8d0f1dd)
N            3.82657474484087        2.22841836104611       -0.09513707493934
C            3.04133707212271        1.38924085630432       -0.04086279907543
C            2.12037035396002        0.34358751466290        0.00333941618956
C            0.75114511813564        0.36276130628006        0.02116406294010
C            0.26258233752992       -0.99680284492872        0.03465579640300
C            1.35918918069242       -1.87759257899087        0.02530636365202
C            2.49273920121234       -1.07738218551272        0.00924796762669
N            3.79869612132484       -1.48684173354797        0.06916676095249
H            3.99157813359050       -2.44007980782009       -0.18952609336212
H            4.49696556511451       -0.81206724086877       -0.19925789664621
H            1.35807341534776       -2.95200461192764        0.03555962631198
C           -1.07113376914573       -0.52247201096113        0.03325345391075
C           -2.37560395300905       -1.08920436237502        0.02270517941028
N           -2.45123049279417       -2.45871126407021        0.08745093428375
H           -1.61474053950091       -2.97207729218055       -0.13171334458756
H           -3.32519635934516       -2.90084105799683       -0.13971358811015
C           -3.50944372876361       -0.31205917161528        0.00527593625563
C           -3.65476963087846        1.10176630838138        0.00489942561916
C           -2.73480837084176        2.11065731407027        0.00742902942894
C           -1.31350791324967        2.03415360147669        0.01166387076791
C           -0.64700163409716        0.85943064803146        0.02261071567049
H           -0.75730912389277        2.96031637066958        0.00504371689835
H           -3.13532347172676        3.11676475150616        0.00204900277699
H           -4.69021680549120        1.42093190260502       -0.00323276429826
H           -4.44595668063501       -0.85910143813788       -0.00527964107912
