23
 energy: -42.383356796143 gnorm: 0.000785035421 xtb: 6.6.1 (8d0f1dd)
N           -5.11382090758771       -0.80245245022564        0.00266692715145
C           -3.97391412110326       -0.64720440769100        0.00116997762541
C           -2.60385233800681       -0.37972320366322        0.00092289460630
C           -2.08485635881601        0.97831526482626        0.00260512302565
C           -0.70305526599356        0.83273810511377        0.00207746426440
C           -0.38224031333324       -0.59735885513266        0.00030639488024
C           -1.56478503992289       -1.32715742183090       -0.00037074904754
H           -1.69905141664592       -2.39324515241778       -0.00167876115517
C            1.00103740859960       -0.30744423583116        0.00106355327503
C            2.24044151709827       -0.94495919628886        0.00118338034595
C            2.28350567916379       -2.35714673403071        0.00023184050649
N            2.30364789748471       -3.50416724572300       -0.00170429047329
C            3.43962984223232       -0.22607169935471        0.00271726401943
C            3.63009282862102        1.15654259458789        0.00439817594928
C            2.72015659497762        2.21101302783402        0.00519789217037
N            1.38909093579662        2.24570025302441        0.00465328015794
C            0.68320395650161        1.15036327446147        0.00282511785207
H            3.15048480414525        3.20787109194574        0.00666091453563
H            4.66774468830096        1.46692253246861        0.00536407430903
H            4.34226599502323       -0.82631345353088        0.00266525647267
N           -2.84179497569283        2.08573548334780        0.00294145817655
H           -2.41051101909691        2.99264026571544        0.00800502703723
H           -3.84479513074581        2.01018794309514        0.00695233671494
