26
 energy: -44.735132202724 gnorm: 0.000494449101 xtb: 6.6.1 (8d0f1dd)
N           -3.52958425337578       -2.59262117330874       -0.04072314771813
C           -3.01066221971747       -1.56337050293260       -0.05963082873939
C           -2.34103529973775       -0.34958396713152       -0.06199177356592
C           -0.94435810148525       -0.10261256999742       -0.11202328389176
C           -0.81616998565527        1.33044979935642       -0.05495988429599
N           -1.94930996916776        1.96592183803700        0.03752132891918
C           -2.89828902266560        0.94724846539053        0.01464201345383
N           -4.21071369475740        1.27648863455198        0.02437221806614
H           -4.88771539418738        0.55983024475883        0.22176179783524
H           -4.43633430719189        2.22629707800861        0.26344365906742
C            0.68196499909307        1.18914930482761       -0.04238950686996
C            1.79513045496357        1.94352182440997       -0.00164849761969
C            3.10865011268003        1.39654056822663        0.01612541802468
C            3.51781711087285        0.08337634123060        0.03667053859281
N            4.88239845559293       -0.14692693977004        0.14617512815209
H            5.48548729457213        0.63119775263803       -0.06497005878743
H            5.22615154405379       -1.03704426593398       -0.17407404796550
C            2.73866890170509       -1.12075824104118        0.03511386083674
C            1.38390740682210       -1.31864714368495       -0.01507839439789
C            0.45896724439379       -0.23412461297027       -0.06957369092423
N            0.84577236632935       -2.57263760992676       -0.06935898565656
H           -0.14776955759791       -2.66895837720421        0.05569520698732
H            1.41730506788985       -3.36936506347802        0.14851328999355
H            3.33561806583809       -2.02607973396358        0.07905877050101
H            3.90574483215556        2.12996537011816        0.03060450995777
H            1.70742420467626        3.01973893498942        0.01474306104501
