18
 energy: -34.941243455683 gnorm: 0.000792380258 xtb: 6.6.1 (8d0f1dd)
N            4.42806806749283        1.44703044401736       -0.08189538822192
C            3.42350874126140        0.89604894864922       -0.03938237157853
C            2.17768609698381        0.22660927324620        0.00189527937129
C            1.01166977761105        1.07525050399490        0.07427068063545
C           -0.20853691468415        0.56812679725903       -0.14947497674679
C           -1.63544685463429        0.92154958436724       -0.16691831996201
C           -2.00235636695346       -0.41960435049137       -0.66113042828955
N           -3.32945401332298       -0.58429370963043       -0.51259014363059
C           -3.68915696987652        0.53483407221244        0.07849975303287
N           -2.68578472997206        1.42673767129550        0.40626175007378
H           -4.70574993994211        0.73671926459889        0.35577488758738
C           -0.69680086252814       -0.79710387817211       -0.34352917562322
C           -0.01407123073888       -1.94928741702351        0.18179605469700
N            1.25754401153978       -2.05394938863338        0.25231701824411
C            2.21566272913350       -1.14998863274293       -0.02670148767223
H            3.18668621044363       -1.61731638416612       -0.15584120500866
H           -0.59447129595741       -2.79390545046858        0.53684216320518
H            1.15724610414403        2.13070115198757        0.24945364168650
