29
 energy: -53.512020185746 gnorm: 0.000814236076 xtb: 6.6.1 (8d0f1dd)
N            4.33402890990276        3.00637373138774        0.01921655689741
C            3.47528465331283        2.23990746474347        0.00532984524343
C            2.41072115011022        1.32022599561566       -0.00208805062572
C            1.11180614685289        1.95086216063464        0.01217311780299
C           -0.03662578532391        1.27268594446671        0.00943562582050
C           -1.51314040089483        1.51644762933298        0.01982138039701
C           -1.71787747172651        0.06947300061082        0.01187966550667
C           -3.11621689455919       -0.18281501196381        0.02287262508419
C           -3.73775766072784       -1.42578741499816        0.02205048370244
N           -4.20357194494562       -2.47927012227142        0.02193996615710
C           -3.72009706749818        1.08386111610271        0.03719447925799
C           -2.70292388274398        2.14320586055690        0.03595534387480
H           -2.94015457844858        3.19120022142082        0.04653122061085
N           -5.04308426294708        1.33333510141812        0.05135182143561
H           -5.38504686091917        2.27664669038121        0.06162173268704
H           -5.70111321753898        0.57403904301668        0.05248116626812
C           -0.34378904565472       -0.15499033228990        0.00220309633366
C            0.50319266417060       -1.30042443712398       -0.00096953669068
N           -0.11509333162690       -2.49944458524256        0.00684240585792
H            0.41142389361680       -3.35664640728746        0.00485688949580
H           -1.12011520082976       -2.54366914730821        0.01118993076712
C            1.89131167158646       -1.19790384487705       -0.00814629542293
C            2.56281170623568       -2.43676767599711        0.00036875301767
N            3.08082790910716       -3.46495290030042        0.01409921089492
C            2.75544357755471       -0.02652103601638       -0.02123146646775
N            4.08479382478379       -0.32534804056085       -0.07706455245059
H            4.40380776979489       -1.27466033314746        0.00236498169541
H            4.75958097621197        0.41823942597321       -0.02459817626116
H            1.10973522224450        3.03165104512299        0.02323100471026
