26
 energy: -49.556275327866 gnorm: 0.000747798852 xtb: 6.6.1 (8d0f1dd)
N           -1.64811985601445       -3.97927074572354        0.02601354493414
C           -0.82337939544575       -3.17985550729675        0.01808093812368
C            0.14529139134289       -2.15666677937731        0.01091585711143
C            1.51084288208214       -2.48844471016860        0.02950899368406
N            2.59600736096630       -1.75166021716773        0.01647551604171
C            2.79057232561134       -0.43814074122021       -0.00642953735408
N            4.10212284907106       -0.10739015628181       -0.03555045169204
H            4.40138708783186        0.85198267223259       -0.04635674337531
H            4.77523573925967       -0.85317678904162       -0.03535908877113
C            1.84878240766670        0.64199430667999        0.00066390205393
C            2.32067155223769        1.96599869731435       -0.00704527321907
N            2.69588671581875        3.05331084664435       -0.01712654083904
C            0.48642645052161        0.43251275837610        0.00517080757963
C           -0.72031721725374        1.16351600178112        0.00350948026578
C           -1.49017166333944       -0.09936021648331       -0.01117779690302
C           -2.84368614389998        0.29186927457642       -0.01493660351457
N           -2.92683056658277        1.63996835209962       -0.00035578621009
C           -1.67640204391893        2.18274897692029        0.01216293255033
N           -1.50618516429191        3.51421829470196        0.05815246200797
H           -0.58717859629531        3.91062075567933       -0.01874033619601
H           -2.31645207088689        4.10330138013182       -0.01083564364781
N           -3.93958968647720       -0.48164610788188       -0.05885132779676
H           -3.85506813641184       -1.47883288594418        0.02499794314365
H           -4.84032295856450       -0.04427504508122        0.01655746209011
C           -0.30075771633633       -0.84109202429431       -0.00356509563095
H            1.73788281250939       -3.55196098187595        0.05592598676345
