27
 energy: -49.262387216187 gnorm: 0.000857323337 xtb: 6.6.1 (8d0f1dd)
N           -2.43612871520517       -3.62999984573033        0.00933913228766
C           -2.16220526645403       -2.51163662495999        0.03671277401959
C           -1.77589335102441       -1.17638943501732        0.05181814105204
C           -0.44158321091802       -0.67428208665161        0.09765225746585
C           -0.48952016834448        0.75821992702834        0.08525516958755
C           -1.79157918495971        1.17438460940154        0.01397414833321
C           -2.30706880852521        2.46760335918513       -0.07742549837216
N           -2.72554620470132        3.53463002721877       -0.17005938860681
C           -2.60577724463449       -0.04935419689640        0.00912373334545
N           -3.96351456843286       -0.03369339590194        0.02557095317881
H           -4.43899835980002        0.82208606343238       -0.20513241197408
H           -4.45259552456783       -0.89709658980495       -0.13907879765758
C            1.01857378894568        0.78741947284388        0.07196351501357
C            2.04634013982244        1.67824003052973        0.06150097594599
N            1.82218260843904        3.03424826855482        0.15650310671707
H            0.88302438057627        3.34984517570911       -0.02587704221881
H            2.55190547473664        3.64623919086705       -0.16795800903363
C            3.40216152802724        1.20759287379729        0.03225967827506
C            3.88334471972794       -0.06963685649443       -0.00794794397180
N            3.31810236754501       -1.29416832722691       -0.04207736941053
C            2.04991905944503       -1.59398267843270       -0.01994101519501
C            0.97130646669417       -0.64668011547574        0.05761537122198
N            1.71144063206434       -2.89878005333172       -0.08060853615097
H            2.44121242037199       -3.58796975601434       -0.11917941460478
H            0.74922786492058       -3.18536840130035       -0.03446216067257
H            4.96579247082104       -0.16176704672806       -0.02418984086365
H            4.14923403912984        1.99131663109924        0.04455583938872
