22
 energy: -37.050197666615 gnorm: 0.000717765404 xtb: 6.6.1 (8d0f1dd)
N            4.45815130744517        0.02197126440786       -0.06163034684937
C            3.08732765254245       -0.03447942088796       -0.02724190728477
N            2.60535108760929       -1.22674526301487       -0.01510191168567
C            1.28588552004894       -1.60765954218418       -0.03774603191014
C            0.23355472709456       -0.78463346122214       -0.00868112020579
C           -1.25569808733899       -0.83754733899538        0.01456073718376
C           -1.26343344675296        0.62763930332313        0.04958404811006
N           -2.52485899458731        1.13450728787673        0.07823921735343
C           -3.28580170726492        0.05539889135925        0.05302921628141
N           -4.63367539591325        0.12557580032333        0.01961950824803
H           -5.17413824205088       -0.69707436298307        0.21868794386128
H           -5.05293871281022        1.02416598807039        0.18519556178704
C           -2.53973507875495       -1.22800866242345        0.00662439599495
H           -3.00249315865975       -2.19632424611497       -0.02566732177950
C            0.12003589325015        0.68433848629089        0.01583297544211
C            1.16711134833023        1.64542169250487       -0.03275678049810
C            2.46952434362353        1.30753615362934       -0.06498575026599
H            3.19584031635742        2.10975939645127       -0.11858792321246
H            0.88362894274486        2.69016006083576       -0.05416132296427
H            1.16093687805046       -2.68307242051119       -0.05671696380088
H            4.93343827694333        0.85550765558800        0.23579277000824
H            4.93057039029284       -0.85494175922342        0.08356796048650
