29
 energy: -52.728103035359 gnorm: 0.000795510890 xtb: 6.6.1 (8d0f1dd)
N           -5.62276453813099       -0.12988100389091       -0.03538900794294
C           -4.47159232853113       -0.06569185146310       -0.01691305408682
C           -3.06795382803347        0.01022694753819        0.00022410357317
C           -2.54413175726506        1.33172176155687        0.00696250805607
N           -3.44871101743572        2.34383762251143        0.01687271603652
H           -3.13552750167568        3.29545520779464       -0.03842381187573
H           -4.43418066870088        2.15324537355559       -0.04076202752246
C           -1.18832788090272        1.71151418271251        0.01990112463681
C           -0.16214028675863        0.81309150683484        0.02379913772609
C           -0.18027342059679       -0.68508599947920        0.00782024257430
N           -1.12617377568270       -1.58391515825607        0.00173163258115
C           -2.42007318791506       -1.26406508135604        0.00548999319838
N           -3.21469709998414       -2.35884484500030        0.00609661004607
H           -2.76362067586873       -3.25602667278573        0.01678096588111
H           -4.21688102353853       -2.29044589029019        0.01873211703230
C            1.22720248098397       -0.70546163320831        0.00374219199622
C            1.25842902564038        0.77070550635378        0.02249407363273
C            2.57686723401589        1.18763918286421        0.01808065485184
N            3.10037036980038        2.44740808183743       -0.03387580489616
H            4.08200408398771        2.54199058474377        0.17133013917438
H            2.51008968116347        3.21064302649913        0.24861017148566
C            3.36310730497473       -0.01784554154119       -0.00791359205486
C            4.75275087827847       -0.03867206616975       -0.02036738378062
N            5.90553664670489       -0.05073512479732       -0.02996174896792
C            2.53534995738837       -1.18287606752915       -0.01803852948690
N            2.98398084325884       -2.46485312435716        0.01670763035498
H            2.32963447777962       -3.19740606522665       -0.19530858633211
H            3.95419094665672       -2.63307161646927       -0.19082927833211
H           -0.97343463041321        2.77324638271787        0.02267888044088
