23
 energy: -41.573250907434 gnorm: 0.000872494808 xtb: 6.6.1 (8d0f1dd)
N            4.12209379637352        2.23066399066561       -0.21224097375387
C            3.23267283075876        1.50557025619049       -0.12493641111943
C            2.15416723297568        0.60614497299523       -0.03164724984399
C            0.90751804199977        1.15258646344044        0.02266106352326
C           -0.27308220067371        0.38467094883748        0.07053085596737
C           -1.64650098780174        0.57374299388758        0.10580337060224
C           -1.89815146800272       -0.87506150778764        0.02193298760276
C           -3.22824647148637       -1.02916757802757       -0.00415406623548
C           -3.73615098037143        0.37163220819396        0.08309546385800
N           -2.79163273669991        1.29570517782532        0.14421194464209
N           -5.03969009272041        0.67939460497901        0.10665349248860
H           -5.74223981765584       -0.03059968623168        0.01272469414752
H           -5.30782057952600        1.64690370284024        0.14167094854750
H           -3.85742583905641       -1.89644009707106       -0.06902313355029
C           -0.42560104312787       -1.08600085100334       -0.00296250401390
C            0.46716991487645       -2.07379266298233       -0.07155372340170
N            1.83267671382670       -1.92227216871814       -0.02740508307551
C            2.53210543850894       -0.85078474986121        0.01507227698945
N            3.87267291985055       -1.04181215485435        0.14402935869324
H            4.52704415296084       -0.28584759608841        0.05101448862364
H            4.20242023678129       -1.99060901725921        0.12899940501273
H            0.16419730398878       -3.11058912707747       -0.13881751433668
H            0.81031008402118        2.23203207360696        0.01040065003242
