21
 energy: -33.331403891212 gnorm: 0.000846817802 xtb: 6.6.1 (8d0f1dd)
N           -0.90852345020638       -2.60667890121437       -0.07868028154306
C           -1.21797749685644       -1.28068161488452       -0.02566251365459
C           -0.11599716911490       -0.38238954251260       -0.02994225993179
C            1.28743857143283       -0.48607579102303       -0.02591690867053
C            1.43384009052885        0.95424638449513       -0.01288355226682
C            2.76784761488466        1.19757471719239        0.00738478746078
C            3.35503284498913       -0.13210586210268        0.00365022429829
N            2.48306599820595       -1.12365897574309       -0.01459253797843
H            4.40955675074877       -0.34342951964500        0.01624784044311
H            3.32270500780472        2.11664685114018        0.02293164510827
C           -0.05753146544113        1.06193278128914       -0.01698525416622
C           -1.01436003647341        2.01287237911095       -0.00232306566479
C           -2.40458666323212        1.70898579907073        0.00236914613441
C           -3.02645761312861        0.49135568928793        0.00141809867031
C           -2.52071767392349       -0.83251339319324       -0.00682500695706
H           -3.27979787471814       -1.60687883770180       -0.00019833305179
H           -4.10953255947126        0.53077921026561        0.01078099858326
H           -3.05753193234237        2.57281665859821        0.01160925375900
H           -0.72944283522362        3.05542011464845        0.00870255269926
H            0.05520202868083       -2.86819244998890        0.04027546162488
H           -1.61744223394389       -3.29907904018955        0.07929132480358
