21
 energy: -37.355028273667 gnorm: 0.000451570089 xtb: 6.6.1 (8d0f1dd)
N           -2.97729640928222       -2.15443617051367       -0.00273442436514
C           -2.00894762369469       -1.21470486501791       -0.00142414741158
N           -2.49605743556257        0.02134955970967       -0.00111541400171
C           -1.88579740176605        1.20134531146563       -0.00021900401775
N           -0.59398360525776        1.58239889985098       -0.00030105528178
C            0.35683016432580        0.69398635197859       -0.00010915621323
C            1.78226447148077        0.71674099793692        0.00004018959994
C            1.80851450775151       -0.75041329045334        0.00055115228111
C            3.13978972028414       -1.10011511840388        0.00069176377619
N            3.89904672046984        0.02234688182378        0.00033027046556
C            3.11186848474787        1.11049757346937       -0.00012369745943
H            3.55049296411201        2.09095286791498       -0.00049622715805
H            3.61488528692721       -2.06389084974856        0.00107509997298
C            0.37041892954901       -0.78738040089033        0.00021483273858
C           -0.66376196623727       -1.67109208331725       -0.00035660313738
H           -0.48293493737594       -2.73756047194493       -0.00035791197780
N           -2.73347816404095        2.24444640485996        0.00065038571521
H           -2.35266080853953        3.17383467883445        0.00109565947406
H           -3.72416552147777        2.08288047777171        0.00061254798624
H           -3.93600395321972       -1.85407650014782       -0.00391555678333
H           -2.75679530159369       -3.13339070797837       -0.00362387470268
