24
 energy: -41.296990730101 gnorm: 0.000969947093 xtb: 6.6.1 (8d0f1dd)
N            4.23519355856242        2.18807492176040        0.06688385492045
C            3.35928825417281        1.44220360307330        0.02499248666751
C            2.28104026746692        0.53949844826921       -0.00789819525589
C            2.59442267620933       -0.80742753052374       -0.02611838245511
N            3.91761140993658       -1.15993374595942       -0.09024596972167
H            4.18915464569230       -2.10435900038160        0.11632955327989
H            4.61435315037287       -0.44294880061486        0.02870673877113
C            1.70156156755934       -1.95385643900987       -0.03389650987736
C            0.35364858827800       -2.02921248928282       -0.01860162949851
C           -0.51155943455102       -0.90698153380896        0.00151982245400
C           -1.87346975842785       -0.63544964097862        0.01607121481766
C           -1.63541573075586        0.80931331605781       -0.00339140156003
C           -2.84190235736372        1.39872570028821       -0.02401401736795
C           -3.78034961122591        0.24868281518197       -0.00704459133483
N           -3.19629088629862       -0.93772862412621        0.01357062993367
N           -5.12071197854125        0.39109779240297        0.03239061223927
H           -5.53104613734363        1.27879651786612       -0.19620533200335
H           -5.67827726622490       -0.43817851354712       -0.07676406819549
H           -3.14497030425660        2.42821334773612       -0.04693016426124
C           -0.17386519906723        0.52435637960624       -0.00664346787097
C            0.98053208644226        1.18948243784625       -0.01197704919917
H            0.99483780626037        2.27062504859990       -0.01371173615131
H           -0.11258495666023       -3.00585351852592       -0.02381564807587
H            2.23709095096342       -2.89669081882925       -0.05547742905476
