24
 energy: -46.888650615209 gnorm: 0.000687390171 xtb: 6.6.1 (8d0f1dd)
N           -4.65318334681662       -2.44702884242305        0.07731179096929
C           -3.68487879524849       -1.83354321960090        0.06333739485474
C           -2.48156916153914       -1.08502709028194        0.04903393916620
C           -1.27940292431031       -1.87074997752483        0.04803441706968
C           -0.06170986046236       -1.30891321897332        0.11176736454893
C            1.37764434181019       -1.69244312484594        0.09198433551721
C            1.75349937224114       -0.30462633496165        0.31591476348443
C            3.16044112831880       -0.27694403668768        0.10503621009210
C            3.99524494742651        0.83578299251860        0.21602499865993
N            4.60721197095202        1.80493832503325        0.29652350808291
C            3.47324150656411       -1.59728101274441       -0.22057687699006
N            2.37557178176328       -2.42773588240355       -0.29555416586662
H            4.44603199848308       -1.99552077633232       -0.43955855580924
C            0.40370274910123        0.06412063715355        0.18399564154496
C           -0.28317908816608        1.30011186011605        0.00924648894056
N            0.46423915023845        2.41793919834429       -0.07154932074482
H            1.46632095377084        2.36386568001962        0.00621953765780
H            0.03276214213534        3.32211044904387       -0.16876539509881
C           -1.68030895670212        1.33998945675232       -0.03755581042392
C           -2.25477978744858        2.62985418425620       -0.13628823171859
N           -2.70223397069148        3.68338509567644       -0.21823980926982
C           -2.62958516107866        0.28077184366041        0.01439528146928
H           -3.65678062969355        0.63150529331260        0.00333482468449
H           -1.38242582474803       -2.94411078310814       -0.01333936412090
