24
 energy: -45.314079506225 gnorm: 0.000874085126 xtb: 6.6.1 (8d0f1dd)
N           -1.98671423753652       -3.18365701611235        0.02030420325503
C           -1.82729183650781       -2.04433984534100       -0.00028443072953
C           -1.62156676389789       -0.65543760684846       -0.02078720394631
C           -0.33825667164734       -0.15227086345661       -0.04322845747937
C            1.00606094545455       -0.56400491347226       -0.04117211489866
C            1.46067451833250        0.84245667871958       -0.02052059005710
C            2.86640437053377        0.77264979194416        0.00791646917474
N            3.26051908382317       -0.51993967610728        0.00240756665529
C            2.17164456755165       -1.33602402998742       -0.02661396753383
N            2.31470446213226       -2.67334248908229       -0.08027994284677
H            3.23487963946841       -3.05394305753620        0.05253373917716
H            1.51283063699719       -3.26512217774249        0.04486208315734
N            3.76247839540806        1.77340337032816        0.07709026669441
H            4.73605577257077        1.54450395984198       -0.01833541552153
H            3.45699164132824        2.71834021301191       -0.06879908687686
C            0.13072493900504        1.28905655044802       -0.03071551545144
N           -0.50075733639746        2.43493090920727       -0.04263322414556
C           -1.82524989165421        2.46785706244141       -0.05991102187744
N           -2.77610311362740        1.56103093453743       -0.02642406067828
C           -2.74536229849352        0.23280384366683        0.00701042980989
N           -3.97515611684743       -0.32414872974968        0.06828433660340
H           -4.09779509343179       -1.32153477197872        0.09264914766142
H           -4.76986132866633        0.29045420545632        0.08716652984774
H           -2.22168190099772        3.48100478871155       -0.10022792989369
