24
 energy: -41.313546136361 gnorm: 0.000530082733 xtb: 6.6.1 (8d0f1dd)
N            4.99306959073833        0.12173125190744        0.01666772984603
C            3.84489876395230        0.20339293633705        0.01075425690708
C            2.43894990644225        0.28329369630867        0.00400121122566
C            1.76748442862516       -0.98099162534257       -0.00228192152698
N            0.45865376784031       -1.26220749704976       -0.00125347800686
C           -0.45467833800961       -0.33123475962142       -0.00678310474401
C           -1.87230658349416       -0.31940264921800       -0.00471312449620
C           -1.86141133312137        1.15015602323197       -0.01482948282708
C           -3.17725287576635        1.59382238952244       -0.00530573750469
C           -3.97756342153922        0.44758775766208        0.01064274140225
C           -3.19534363919612       -0.74607177090519        0.01388198799187
N           -3.68689416550716       -2.01746381427920       -0.02852147933191
H           -4.64813542016840       -2.15606417094609        0.23523200344148
H           -3.04945356100040       -2.76342922799923        0.19275214493529
H           -5.05375841021273        0.45215797255415        0.02121678206899
H           -3.54218854230157        2.60500621062967       -0.00899992531758
C           -0.44528483929431        1.15664774404826       -0.01236417858980
C            0.62135049259931        2.03590530087438       -0.00324055971774
C            1.93057809706198        1.59361038764257        0.00454245875690
H            2.69785040164592        2.36050227402421        0.01110491144775
H            0.43238887765898        3.10039400662794       -0.00255736703216
N            2.53409560169451       -2.08951726889086       -0.00473647914218
H            2.06843584886993       -2.97996526460592       -0.01571963531655
H            3.53823597798244       -2.03469363021257       -0.01119872056955
