23
 energy: -41.580506145029 gnorm: 0.000897894038 xtb: 6.6.1 (8d0f1dd)
N           -1.86863346477560       -3.32191076664025        0.01329739453702
C           -1.88409640731556       -2.17335299786835        0.01008545801753
C           -1.84241918262763       -0.76480422368930        0.00552971386297
C           -3.04584520201833       -0.02714610045981       -0.00896272543165
N           -3.27939634770326        1.26401144934756       -0.00213287523268
C           -2.44979309811124        2.29475402508486        0.00557797307789
C           -1.05616345816320        2.39358816498919       -0.00798854806215
C           -0.23367864388677        1.29442472599675       -0.00828594220855
C            1.13569484477694        0.92749700094180       -0.00921819347849
C            0.77006556120135       -0.49137499511798        0.00614451938037
C            1.98484035085910       -1.20074686531616        0.00580677727850
N            3.02053896194693       -0.32490529779031       -0.00646549622960
C            2.54223852107961        0.94384257546595       -0.01593446924713
N            3.38666688626934        1.98853424432561       -0.06309347813240
H            4.36998139762153        1.80261637915535        0.02796258569814
H            3.04418109620062        2.92217634150304        0.07052945107364
N            2.18882068310126       -2.52355932045312        0.03464898319597
H            1.41138685519851       -3.15809366132913       -0.00901675906636
H            3.12994543899539       -2.87113408500320       -0.01648423630371
C           -0.59725805946406       -0.15902398525409        0.00580488760661
H           -0.62013425373138        3.38444064118026       -0.01328225738509
H           -2.99109460420938        3.23851492843789        0.02051702904928
H           -3.95948657304418       -0.61790391120655       -0.02512957220009
