26
 energy: -45.550543369084 gnorm: 0.000378976153 xtb: 6.6.1 (8d0f1dd)
N            5.01568051799128        0.26975893773253       -0.00305714072259
C            3.86622549949472        0.22983087946943       -0.00164346645121
C            2.45450026451398        0.19905757645086       -0.00022597849634
C            1.92770210381624       -1.09562316152123       -0.00538228693583
C            0.60756357917159       -1.53928428762898       -0.00186562816759
C            0.36908265995124       -2.93027415072321       -0.00558924571391
N            0.17055961132051       -4.06082078016435       -0.01023677284795
C           -0.49071697472694       -0.67577081237830        0.00429019043436
C           -1.89843761548265       -0.73256038966477        0.01007207014657
C           -1.96637389917381        0.73447559274943       -0.00580313320756
C           -3.29989320620059        1.10494551370284       -0.01535712348619
C           -4.03899908965687       -0.12539597938167        0.00344512104043
C           -3.19911308867559       -1.23463033979378        0.01763980220594
H           -3.51357098907441       -2.26168476194296        0.03196335403383
H           -5.11412414247745       -0.16605583853739        0.00501558014128
N           -3.85947570550657        2.34997824302805        0.02218971884707
H           -3.28161842484373        3.13076902045943       -0.23879614899053
H           -4.83412403494898        2.42344055535333       -0.21778406210488
C           -0.53692626755500        0.79834528504543       -0.00288983032640
C            0.44393217518119        1.75011134051540        0.00197307731092
C            1.82449440569422        1.48313865594668        0.00722215394250
N            2.64757575804924        2.55606611647879        0.01489228357571
H            3.64660718312791        2.43596661475010        0.02561870228575
H            2.26768121620870        3.48536766205245        0.03078018722649
H            0.15093393882428        2.79289057203653        0.00527739982744
H            2.67834995857756       -1.87992457943469       -0.01051831606726
