22
 energy: -37.858285491563 gnorm: 0.000737160889 xtb: 6.6.1 (8d0f1dd)
N           -5.27160221435373       -0.31723132390415       -0.00017053625429
C           -4.12914156357758       -0.20721873912578        0.00225606776851
C           -2.71837760335858       -0.07297776147967        0.00032958630624
C           -2.26526843760955        1.25519583351598        0.00015830669163
C           -0.96543794699364        1.74246691490942       -0.00025992249830
C            0.14795033430614        0.93575566079167       -0.00052432094773
C            1.57329628484980        1.05776562118854       -0.00093205396778
C            1.70420317117195       -0.39698292086214       -0.00096307000120
C            3.08376762704769       -0.64284173594017       -0.00139616549926
N            3.75313475952349        0.54733575824753       -0.00161688942877
C            2.86871205204546        1.55670416467000       -0.00136293914556
H            3.22532896924139        2.57057518312540       -0.00145400368575
N            3.76732336130920       -1.79910089020649       -0.00342200491997
H            4.77073334727754       -1.75741784873784        0.00159767716602
H            3.29664596892602       -2.68435569967542        0.00453737056376
C            0.28853526859115       -0.53595884918724       -0.00054118443767
C           -0.66164276786077       -1.53688833744219       -0.00030594396790
C           -2.02495209023219       -1.29707773722356        0.00013210254159
H           -2.66435235630832       -2.17309471706499        0.00045714472638
H           -0.32854916446134       -2.56672550665928       -0.00042498045882
H           -0.82486513904247        2.81515763386333       -0.00029739697832
H           -3.05422950129170        1.99916760249701        0.00050140612716
