27
 energy: -49.264900390822 gnorm: 0.000873941636 xtb: 6.6.1 (8d0f1dd)
N           -4.83806512000711       -1.57233560209231        0.05452793904609
C           -3.88116316567578       -0.93230581465664        0.01192275022703
C           -2.68473378337743       -0.19178293178958       -0.01680920639731
C           -1.53110145152214       -0.96687093251498       -0.02184684233131
C           -0.23026531695460       -0.39145119169090       -0.02409128629874
C            1.08472010204890       -0.87111703086719       -0.02401092592222
C            1.61868183576182        0.47670163723069       -0.00706900428638
C            2.96979467728318        0.35289642330375       -0.00652337377975
C            4.01568344882661        1.27166362454329       -0.00160242863769
N            4.91433714766515        1.98959603863654       -0.00681567704059
C            3.17492222220352       -1.13525763841126       -0.02481725189697
N            2.05236980431963       -1.82597562509319       -0.03589545172044
N            4.39543154797026       -1.69556061741328        0.00163740460205
H            4.47118720761952       -2.69183376851244       -0.09864719516962
H            5.21224004409206       -1.12105254954358       -0.10741977653029
C            0.20827315852222        0.99415757523336       -0.00672697371404
C           -0.45727726192904        2.15530395603652        0.00446927116279
C           -1.88285617406430        2.24046174894767       -0.00737292064184
C           -2.83886052937190        1.25960376132726       -0.03061097405244
N           -4.15276022439849        1.67062317895645       -0.13039105336185
H           -4.34923847031097        2.63900421997479        0.05471716299755
H           -4.88318255362160        1.01923619411459        0.10325825505833
H           -2.27075493329635        3.25163987167339       -0.01199296046756
H            0.08807417452359        3.08762098498543        0.02059051455164
N           -1.57356320988862       -2.31787698162381       -0.01794033301197
H           -0.70606043812421       -2.82585321046132       -0.01456395921301
H           -2.44781590089741       -2.81386934559115       -0.01110867297397
