24
 energy: -41.311973161767 gnorm: 0.000437827871 xtb: 6.6.1 (8d0f1dd)
N            4.93186544843222        0.82189193654666       -0.00338435450280
C            3.79212707502843        0.66079136924347       -0.00299855393794
C            2.40042922975668        0.44574457923814       -0.00154103100693
C            2.00437879381395       -0.94022563128993        0.00688165901231
N            0.79039993635773       -1.48318807457704        0.00546024398949
C           -0.30525911568884       -0.76760677298718        0.00087424372073
C           -1.69210691311746       -1.05126110990691       -0.00191695037547
C           -1.98859916721676        0.38888696636303        0.00785677214432
C           -3.37161907675355        0.54634435972360        0.01589062547988
C           -3.90416902887212       -0.77353311279175        0.00520199911185
C           -2.89437882068793       -1.74327722975001       -0.00511019024142
H           -3.05437404437145       -2.80584785498611       -0.01342061950521
H           -4.95904363739930       -0.98698936398552        0.00589547378541
N           -4.10647751167023        1.69950063240316       -0.03250850608271
H           -5.07821674129783        1.63172969332021        0.22183988417673
H           -3.64413109807267        2.55199053936669        0.23560028783417
C           -0.60277299586523        0.69053744473151        0.00334484771558
C            0.25209301123906        1.77125967937221       -0.00414911375140
C            1.63073392771845        1.61235788078291       -0.00770445113633
H            2.21569460864740        2.52635288271365       -0.01469027193458
H           -0.15009858534850        2.77521437012262       -0.00954110333851
N            2.99106512479660       -1.85721568517217        0.01677386566384
H            3.96071482643491       -1.59042657756070        0.01390287909838
H            2.72481117793648       -2.82657710482052        0.01878539038058
