20
 energy: -33.600969252889 gnorm: 0.000981805783 xtb: 6.6.1 (8d0f1dd)
N           -1.00410013832221       -2.48825669121208       -0.26453587305393
C           -1.23226923056888       -1.17837181150852       -0.01833000246228
C           -0.08376624485211       -0.35839274172263        0.29874268451247
C            1.28066874282665       -0.55658193527768        0.54480575477711
C            1.47798103930676        0.84367394585487        0.13613392282817
N            2.63825756727040        1.02287853698391       -0.40858969206764
C            3.31446644992589       -0.17102559793857       -0.19996305885822
C            2.53234630898845       -1.17560200880372        0.32710981878237
H            2.84509198639466       -2.17276784921068        0.57071243931030
H            4.34379288611297       -0.23248368289165       -0.50123971244972
C            0.01517291225535        1.07661559345733        0.13193579392194
C           -0.91632409608485        2.03490013301010       -0.02459301146101
C           -2.31095169762567        1.73398004121313        0.02874683932624
C           -2.91784207192454        0.51004849008178        0.06379127904382
N           -2.45782150522976       -0.75537857635490       -0.05187360423473
H           -4.00210643049389        0.50917805429494        0.12920612175639
H           -2.97317295567172        2.58949744901203        0.03053164189915
H           -0.61813301063691        3.06295744423671       -0.16736623842947
H           -0.08054996419315       -2.86848662803574       -0.17002791909615
H           -1.78398548277735       -3.08809170908847       -0.46415502924476
