25
 energy: -45.018099834785 gnorm: 0.000890483585 xtb: 6.6.1 (8d0f1dd)
N            4.24782340887277        2.40988566978281       -0.01628840123961
C            3.36228456668491        1.67344217476268        0.01451583349964
C            2.28566134308217        0.77184253757008        0.03166698147576
C            0.98624659787982        1.40908386604827        0.05996088042115
C           -0.15656184877740        0.72950439248424        0.14651591002901
C           -1.63339117338167        0.95373318689757        0.16928164466329
C           -1.83700381878374       -0.47330550667246        0.39473823052882
N           -3.16276762921945       -0.74917977956251        0.28197005522421
C           -3.66508396139789        0.44441292131498       -0.00158678879226
N           -2.74972728445555        1.51785285743831       -0.15604355799505
N           -4.97197918249534        0.69096299059730       -0.16488051927909
H           -5.60717724648821       -0.08500286972005       -0.21203484133524
H           -5.23535136281056        1.58242895198817       -0.54481122599932
C           -0.47388769252240       -0.69310429451658        0.21696487082322
C            0.37011855117588       -1.83051505582272        0.01559526968908
N           -0.26929161893618       -3.02473014740309       -0.09855333019671
H           -1.25472856466613       -3.04956740942674        0.10061818082167
H            0.24719982178782       -3.88605082566637       -0.07966340194208
C            1.73186256864770       -1.72474592718654       -0.06415416296661
C            2.60110590236877       -0.58298790616970       -0.00842870011543
N            3.92975928119120       -0.91564750631750        0.02987385568968
H            4.61162019496046       -0.18128082289714       -0.06436037597933
H            4.21529402895291       -1.84543788668579       -0.22089097126573
H            2.26277696225474       -2.66525345303669       -0.17154408267808
H            0.98080604807529        2.48834998579901        0.00810267761920
