22
 energy: -41.850469496228 gnorm: 0.000610372100 xtb: 6.6.1 (8d0f1dd)
N            3.87146555808890        2.43611742911646        0.19204167508420
C            3.11633033599004        1.57616731619485        0.08127599575967
C            2.25939938388080        0.48630146613066       -0.04959237181613
C            0.91717385184550        0.35399444650417       -0.12207575698763
C            0.64721523526575       -1.08564082704010       -0.19181077272293
N            1.78281638226327       -1.83101601348823       -0.21055530848838
C            2.74864487832279       -0.94499906084904       -0.13723956327523
N            4.04909371685859       -1.25373193542950       -0.12666354365585
H            4.32232562246990       -2.21965802586175       -0.16437678073424
H            4.74384475382896       -0.53450729599330       -0.02950177839427
C           -0.72092384909406       -0.87636184870778       -0.09810699923407
C           -1.92972297405784       -1.58669179367479        0.17388633075773
N           -3.09352062461597       -1.07245001666808        0.25650727711150
C           -3.44604741575800        0.26876626600265        0.02741259502105
N           -4.78156183740302        0.33441397237942       -0.19555150416112
H           -5.21223738987484        1.23987325209899       -0.25241210623205
H           -5.33680018073841       -0.48219803679648       -0.01480865961767
N           -2.80749641810501        1.38599274845906        0.03938407750323
C           -1.44932358129955        1.57432144004158        0.07043619379491
C           -0.55227425740118        0.59297425070423       -0.05996581852317
H           -1.16005706482765        2.61397600490666        0.14382428158421
H           -1.86454394253897       -2.65242705782969        0.38040542222627
