28
 energy: -53.793683369583 gnorm: 0.000811493235 xtb: 6.6.1 (8d0f1dd)
N            4.95266513124067        2.27575914192527        0.01791333332773
C            4.04117730158404        1.57204987772504        0.01282035505175
C            2.94012018446084        0.70172513186994        0.00491727636420
C            1.65354861756442        1.34650283469508       -0.00342450896900
C            0.50511393478107        0.65872706413497       -0.00638368157358
C           -0.98406412745980        0.87115728384065       -0.01055908017143
C           -1.16356544567969       -0.56566242004529       -0.00524849657843
C           -2.55790667197790       -0.85481747831414       -0.01071021972744
C           -3.13985180223000       -2.11820246504838       -0.00918438498594
N           -3.56759738368735       -3.18703773198162       -0.01032723788203
C           -3.20164085989711        0.38748650579254       -0.02026759883002
C           -2.20062683430907        1.47914175318417       -0.02210112145735
C           -2.55512184185221        2.83124707055825       -0.03857799901932
N           -2.89204899975958        3.92903178000927       -0.05615614843770
N           -4.52748710705129        0.62144432841965       -0.01541090792100
H           -4.87418921850722        1.56361927792545       -0.05518738887527
H           -5.17550703785749       -0.14573227950442       -0.04084307862939
C            0.22180348273058       -0.76527204793638       -0.00452585482906
C            1.14342353181372       -1.86851995733550       -0.00905236531037
N            2.43959170834458       -1.76880584708974       -0.00446346147051
C            3.23489386114408       -0.67079880056843        0.00712524648507
N            4.54071530593603       -1.04080210708156        0.02323343598979
H            4.75192166029885       -2.02151068133488        0.01246126436447
H            5.27639192186727       -0.35697223816008        0.02371143337178
N            0.61211775603628       -3.10532522623968       -0.02061026165893
H           -0.38449986103079       -3.23794393788195       -0.01972533720942
H            1.22379380430866       -3.90253011552062       -0.02288335748534
H            1.65153560558920        2.42711694466066       -0.00531718353299
