22
 energy: -37.046659087121 gnorm: 0.000751709328 xtb: 6.6.1 (8d0f1dd)
N            4.45184708488106        0.12076471203497       -0.03767141850298
C            3.09204232355298        0.05130627029803        0.05826714324915
C            2.37218165797506       -1.23206004066109       -0.04617450088780
C            1.07021258745497       -0.92446955966201        0.04351601225931
C            0.92365510074189        0.53574154378568        0.16215163351985
C            2.21147567718628        1.11026480775614        0.17657871875547
H            2.48145041449295        2.14619571702596        0.26398067671699
C           -0.45912563495355        0.41165161277812        0.12676359052797
C           -1.63922804575705        1.24207228233994       -0.00430676656980
N           -2.85870859901417        0.80605882604588       -0.01753040244752
C           -3.27635774854159       -0.49237907046947        0.10393566822571
N           -2.73714653233144       -1.65005380559289        0.03359666977687
C           -1.40153403114447       -1.94827442609464       -0.08049331213527
C           -0.41401040191837       -1.04646899645193        0.02467123250570
H           -1.20143779947891       -3.00575477293239       -0.19497699976466
H           -4.35584702396841       -0.52021532913638        0.24911177703689
N           -1.43524193943875        2.56985884987714       -0.13521578096877
H           -0.50175634209325        2.93599412535641       -0.18047097890463
H           -2.22476039277640        3.16805520744678       -0.30401844138150
H            2.86182270176456       -2.18141269712166       -0.16687297598695
H            4.89769819984284        0.97630324571530        0.24824599918827
H            4.97330841892375       -0.72356484223783        0.12695410628773
