29
 energy: -52.707995466044 gnorm: 0.000647956002 xtb: 6.6.1 (8d0f1dd)
N           -4.01954472388483       -2.65599864715050       -0.13606487049294
C           -3.27530861671330       -1.77776591574503       -0.07825016010908
C           -2.34781968707602       -0.72617630842890       -0.02023486168831
C           -2.92194029270153        0.63119232889480        0.03174593896929
N           -2.39490435266418        1.80760394925807        0.00524941586400
C           -1.08253759413228        2.18755030337134       -0.04428510132105
C           -0.03954868427401        1.33250910084654       -0.00115172962816
C            1.46540019132799        1.32144620824334        0.00216181233335
C            1.41867825065390       -0.13509240247680        0.05924115629820
C            2.75882222569452       -0.62637713241559        0.04047087034080
C            3.15422765224857       -1.95673311711738        0.06865486435684
N            3.43262536885119       -3.07531428083962        0.08107897974895
C            3.56708241353948        0.51199215895790       -0.03180942552449
C            2.74401199128281        1.73072298017082       -0.06603250875464
H            3.16067245066460        2.71965118282495       -0.13647440289649
N            4.92232040566699        0.53631083836497       -0.01874045908245
H            5.41831559791409       -0.33192523582735       -0.12984864006433
H            5.39853554011627        1.38201025910310       -0.27880067709324
C            0.02708117349637       -0.11989856592676        0.03546763975943
C           -1.01154720116184       -1.09853117721588       -0.00367760835646
N           -0.62681727541042       -2.39048647214247       -0.02938985272638
H            0.35242963866113       -2.62008635551498       -0.01219107494672
H           -1.30697337252177       -3.13079662297411       -0.06334196507040
N           -0.91861406833239        3.55518876038478       -0.18645242765625
H           -1.72668809371225        4.09139987638381        0.08675109420236
H           -0.03457780196071        3.92175746221473        0.12776678120880
N           -4.27922377483554        0.63935691283375        0.16058017681214
H           -4.81885386735809       -0.19586790392337        0.01726742036689
H           -4.73222349287727        1.53339616964845        0.09218121255174
