27
 energy: -49.258515951870 gnorm: 0.000459721055 xtb: 6.6.1 (8d0f1dd)
N            3.44468611524816        2.96420804397433        0.00105946008750
C            3.11445281546503        1.86053276178261       -0.00837349690592
C            2.67118001534459        0.54547609069370       -0.01143618244448
C            1.34204966091691        0.05402655778976       -0.03856470144447
C            1.47633791086082       -1.38873484920115       -0.02010463722417
N            2.70050028342021       -1.81021801276627        0.02319555922197
C            3.45510294850110       -0.62922117669233        0.01954557486615
N            4.79654615807672       -0.72246971889020        0.01926261360186
H            5.35785566012360        0.10169706419790        0.14067231269743
H            5.20561015460997       -1.63008978570676        0.15127969615644
C           -0.02267286879565       -1.51924488292497       -0.01550508344865
C           -0.98272510402365       -2.45460604020865       -0.00793943852452
C           -2.37529195527542       -2.14504619470456        0.00894256513071
C           -3.02425184629622       -0.93763577610045        0.03318963931810
N           -4.39942544111203       -0.97000422412179        0.13826205820517
H           -4.92475391151736       -0.14168413290436       -0.08565964898828
H           -4.85750866545411       -1.84679943653218       -0.03971732281815
C           -2.47270063659078        0.41307222060977        0.01863652716462
C           -3.42087113485492        1.45483196531509        0.00915401827575
N           -4.16805747829099        2.33062062388322       -0.01528307686587
C           -1.15096356049592        0.84211573575676        0.00534386351541
C           -0.05663658479604       -0.07217724992972       -0.01528618523503
N           -0.82718181469607        2.15458851759187        0.00162568344580
H           -1.53729059568002        2.86623359858396        0.01351213522706
H            0.14058172126281        2.42715433023002       -0.01412931951582
H           -3.02750646554413       -3.00958298690397        0.01931729347131
H           -0.71123742600617       -3.49942637532103       -0.01204116106999
