23
 energy: -41.573253476764 gnorm: 0.000725533233 xtb: 6.6.1 (8d0f1dd)
N            4.12387620965978        2.23107347487186        0.19233556561256
C            3.23273193441502        1.50720139505841        0.11251384529041
C            2.15427797168086        0.60696158559837        0.02780319339874
C            2.53231646504942       -0.85044114909661       -0.01249676001943
N            1.83282003030886       -1.92187373938873        0.02824588516076
C            0.46703542454364       -2.07418891329911        0.06750356211403
C           -0.42591881791632       -1.08638328454202        0.00222979479819
C           -1.89849052645069       -0.87530258974978       -0.02195904345128
C           -1.64675707682604        0.57400445700764       -0.09845802283586
N           -2.79186880298628        1.29588974615264       -0.13517707207515
C           -3.73652068856574        0.37146661047893       -0.08130335497438
C           -3.22855912601722       -1.02983534815127       -0.00115643460990
H           -3.85791744299730       -1.89744141667691        0.05582129121178
N           -5.03999933251074        0.67955334977329       -0.10797400657559
H           -5.30604733362505        1.64806779568028       -0.13025515675551
H           -5.74267956130392       -0.02950301008715       -0.00839234007460
C           -0.27333662155789        0.38428114962659       -0.06595919583695
C            0.90719092210276        1.15258078466729       -0.02323219976845
H            0.80895782913704        2.23197842510658       -0.01346880953983
H            0.16461674025248       -3.11134504078236        0.13049909297554
N            3.87358101063001       -1.04184596638585       -0.13193875231321
H            4.52751851023224       -0.28476333273362       -0.04431246165473
H            4.20311075374496       -1.99066450112850       -0.11479927687714
