19
 energy: -33.911304807852 gnorm: 0.000717593129 xtb: 6.6.1 (8d0f1dd)
N           -3.30911020176814       -1.47409789645614       -0.00005428637668
C           -2.25228186892620       -0.65618772244525       -0.00005754742305
N           -1.06761679855639       -1.29278416403529       -0.00036304684516
C            0.02322750632738       -0.56860877977271       -0.00046581547895
C            1.42824364875157       -0.79708345754622       -0.00095029389586
C            1.66776230340670        0.65646244349498       -0.00084183172526
C            3.03692170140681        0.86857076871397       -0.00145847929086
C            3.61902309374434       -0.40919944122384       -0.00191077590547
C            2.64911753633480       -1.43699627632567       -0.00162433974868
H            2.85746486451378       -2.49088601673584       -0.00188957485441
H            4.68072845972090       -0.58808262232265       -0.00244540234181
H            3.56972821029592        1.80109878529275       -0.00157058287357
C            0.27152331822642        0.89430441221911       -0.00035369102745
N           -0.53583050028415        1.93857510866694       -0.00004751682884
C           -1.84309990175716        1.72082698964930        0.00025151109459
N           -2.59533614113657        0.64525516546850        0.00023780459553
H           -2.42778089967047        2.63955819326127        0.00055977005652
H           -3.16092233771134       -2.46856435019627       -0.00027746600087
H           -4.23339300981819       -1.07850657220693        0.00012730087028
