23
 energy: -42.379502104524 gnorm: 0.000551694538 xtb: 6.6.1 (8d0f1dd)
N           -5.12610489754034       -0.81979921137652       -0.08475429024235
C           -3.98948236943429       -0.64276182533806       -0.06561757800261
C           -2.62215678018504       -0.36570957158664       -0.04130857300596
C           -1.57670435349941       -1.31079737358348       -0.13696123966895
C           -0.40303629330197       -0.58120162934138       -0.07763622011684
C           -0.72608874936786        0.84415936323648        0.05034355962104
C           -2.10936059979866        0.98217678144165        0.07799497531331
N           -2.87710697939503        2.08218387304306        0.20976068701285
H           -3.87703608013435        1.99636183409275        0.14490312551005
H           -2.46461749658040        2.99707079676487        0.19173308470665
C            0.66011789027683        1.16737918624808        0.05396090216772
C            1.48349647271040        2.26974992443957       -0.00622672217212
C            2.85741527985259        2.11993041077666       -0.21344596793552
N            3.62784101084576        1.08170644535668        0.01139971298298
C            3.39505917653160       -0.18391530635855        0.22322053485529
C            2.21137453222707       -0.92179185861418       -0.00116498672710
C            2.27131979429053       -2.32990076703710       -0.02794433852580
N            2.32711816653950       -3.47576274332220       -0.05303687891755
C            0.98263238645452       -0.27597811599946       -0.05956627041219
H            4.26559316974271       -0.73910541581967        0.56164192254251
H            3.41285854252434        2.99271585441747       -0.54544532064468
H            1.05836941619193        3.26336791339998       -0.00853668366856
H           -1.71178668864999       -2.37217588833941       -0.23363922557360
