19
 energy: -33.877628678744 gnorm: 0.000637522604 xtb: 6.6.1 (8d0f1dd)
N           -4.12497602423767       -0.08302727759115        0.11532926287796
C           -2.80151411363508       -0.06952568138036       -0.07656088532056
N           -2.08494362972502        1.11953391822806        0.17854728502465
C           -0.89298473517395        0.80024233279641       -0.21759450655907
C           -0.84859001824702       -0.62686072080171       -0.53755684745920
N           -2.09876141306541       -1.13079723469794       -0.45934633341179
C            0.51981036937712       -0.61475847611183       -0.26764687723638
C            1.54821155706123       -1.53107975229137        0.15560397797122
N            2.78894788345776       -1.25886824805163        0.26445437196290
C            3.42127097470771       -0.06526158321129        0.03827695226639
C            2.97003254061049        1.21417270315235       -0.00124876019692
C            1.60938290531544        1.68989992356995        0.01611415272813
C            0.58645305355971        0.84186406823294       -0.15112453257496
H            1.43927457910381        2.75139343433678        0.11098080295622
H            3.72644440486284        1.98714624499735       -0.04699644261138
H            4.49456329692630       -0.21572362465152       -0.01681613146588
H            1.25262040222232       -2.54312244365213        0.41666024071144
H           -4.61052404830762       -0.96006937449022        0.06296759067409
H           -4.54987949191287        0.70851317801740        0.56336802266312
