27
 energy: -49.251648836233 gnorm: 0.000876704754 xtb: 6.6.1 (8d0f1dd)
N           -3.13534089453584       -3.20879421856280        0.06795924914160
C           -2.38853836385878       -2.33263717169728        0.02908386632518
C           -1.46289477532873       -1.27355705416027        0.00061670116650
C           -2.01452267699750        0.00816194729303        0.00934685332019
N           -3.37353312719508        0.08946794033980        0.06080730202215
H           -3.92725958647670       -0.74886830749572        0.02996774943847
H           -3.83672151660323        0.97940329203352        0.01094171268655
C           -1.35410992283055        1.29642522761254       -0.02535652687838
C           -2.20970562221003        2.41477073787972       -0.10451982694077
N           -2.87252916282882        3.35272675759663       -0.17230460083684
C            0.00021991388331        1.61579291289720        0.02493563391610
C            1.00975191312151        0.61544039948280        0.11011709022457
C            2.41097945730051        0.61800482999946        0.18269404450195
C            2.45490070752568       -0.82738433840471        0.06651412043198
C            3.75421785009132       -1.15322883373957       -0.07929557743503
C            4.44738459513735        0.14135988195143        0.01688609882956
N            3.65414003858535        1.17457613803760        0.15880851659349
H            5.51361961630338        0.27267300987789       -0.02689770028025
H            4.24406215247001       -2.09662496210176       -0.23381803000948
C            0.94124065274604       -0.81755129591506        0.04719220906488
C           -0.07863914831061       -1.70418219594186       -0.02774446174194
N            0.17770794977195       -3.04807774946120       -0.19038246287110
H           -0.55477627733674       -3.69988270323161        0.03887111398281
H            1.11580778004316       -3.34363369312746        0.02245483354490
N            0.44043037510097        2.88751181787267        0.00150574976206
H            1.43331162843868        3.04948821680987        0.04146413117160
H           -0.19420656530664        3.66503784815509       -0.06246410613055
