23
 energy: -37.574796362446 gnorm: 0.000406454901 xtb: 6.6.1 (8d0f1dd)
N           -4.63147709600791       -1.83634422650938       -0.01230491864593
C           -3.71077172569183       -1.15217745998577       -0.00664397692431
C           -2.56700627994787       -0.31381635765180       -0.00064546909600
C           -2.82681642352044        1.03400825446258       -0.00665876502506
C           -1.94014056433520        2.15693608370908       -0.00538313649499
C           -0.58345703056280        2.19387126621554        0.00106665798930
C            0.24006551280102        1.03725207486582        0.00925955599592
C            1.60798803303968        0.73439251057359        0.01343703398452
C            1.30356256080936       -0.69519858201803        0.01571070526763
C            2.46254038138345       -1.39735223779239        0.00788842638324
C            3.52390877789958       -0.40109176086165       -0.00009449487890
C            3.00248152095726        0.88957406955231        0.00337568549482
H            3.57477468527823        1.79800572759672        0.00042938097810
N            4.85028271795237       -0.73820982922566        0.05653470022900
H            5.09746244276370       -1.66946088084122       -0.23480708993840
H            5.51247006418227       -0.02058371917766       -0.18851780622740
H            2.63140905494088       -2.45922046960494        0.00694092539065
C           -0.12843577502629       -0.37479794686090        0.01245457420504
C           -1.31722511974499       -1.01823904415046        0.00889297287600
H           -1.35555048740523       -2.09819001293122        0.01214244628221
H           -0.08335362948390        3.15334247489848        0.00001712203934
H           -2.45137019982878        3.11234499431260       -0.01116497375909
H           -3.87731060555255        1.30154225622438       -0.01397287772573
