23
 energy: -42.367132797215 gnorm: 0.000713381812 xtb: 6.6.1 (8d0f1dd)
N           -5.38594989815351       -1.22575246447137        0.01901351460976
C           -4.35565896329751       -0.72192635103056        0.01117604171373
C           -3.07392543731586       -0.12031014295937        0.00136828564557
C           -3.06302412138038        1.25310196017435        0.01326164536075
N           -2.06710847512944        2.18021239846213       -0.02169330072306
C           -0.79906006953180        1.98613778881928       -0.02010683642325
C           -0.12290646386182        0.72568445960183        0.01595697996228
C            1.17921913566160        0.22937461777415        0.02081229757604
C            0.68420823695851       -1.14531241954103        0.00544941033589
C            1.72297666137569       -2.00825968556610       -0.01500870088822
C            2.92817065720168       -1.18168628901415       -0.00857188539395
C            2.59705285326935        0.18523511310065        0.01209336208014
C            3.50535243225604        1.24151492053069        0.01220235802390
N            4.27000253285090        2.10087047596168        0.00618348866769
N            4.17549548364610       -1.69101171104320        0.00210419948245
H            4.32294329846859       -2.67806234672223       -0.10686151900352
H            4.96613704800727       -1.07289487081713       -0.05813214472047
H            1.73598166065529       -3.08268107456463       -0.03222649940000
C           -0.70036266319868       -0.62358631587010        0.00501897008455
C           -1.97050418437206       -1.05600444013615       -0.01428728182210
H           -2.20868458847183       -2.10934257928924       -0.02815042628993
H           -0.18810642117876        2.88372992700139       -0.05927092459961
H           -4.03486493895942        1.73829776549928        0.03867613982112
