23
 energy: -42.381669092301 gnorm: 0.000461872910 xtb: 6.6.1 (8d0f1dd)
N            5.18927608535303        0.30243544802085        0.00103153605189
C            4.04503013321352        0.42082341306844       -0.00096020886125
C            2.65253193623019        0.50759699717109       -0.00078425399142
C            1.89445870421369        1.69892549651679       -0.00201878619167
C            0.56500719559228        1.31038071133165       -0.00186559951696
C            0.50394554631384       -0.15358734508081       -0.00035555385029
C            1.79813149307494       -0.66428029938231        0.00037487456799
N            2.21777159047301       -1.93751505706840        0.00166655436636
H            3.20175910763105       -2.14562825767391        0.00216003037522
H            1.55069616662217       -2.69012870756789        0.00245989466859
C           -0.91002289771964       -0.10284718373472       -0.00068943896590
C           -1.99542801324197       -0.96895014352582        0.00009559854912
C           -1.71329597186888       -2.34921477970172        0.00223667840780
N           -1.41071686199933       -3.45721146351056        0.00218915497894
C           -3.32969790523524       -0.50506774395314       -0.00058837188275
N           -3.83202341412181        0.70371553729411       -0.00194974723376
C           -3.23568179592479        1.89195662530354       -0.00310505515990
C           -1.89985411353207        2.28013685003427       -0.00332340985561
C           -0.85973829297391        1.37137684504863       -0.00224388921070
H           -1.67389375068862        3.33751936797929       -0.00431688198924
H           -3.96651622480644        2.69720654373243       -0.00396334126512
H           -4.09565953510933       -1.27791146069106        0.00015316375318
H            2.31374232900250        2.68857089807793       -0.00304027833676
