18
 energy: -34.165251006758 gnorm: 0.000568531193 xtb: 6.6.1 (8d0f1dd)
N           -3.12066531241892       -1.62548063236271       -0.27104165708071
C           -2.37363263085089       -0.52876928343974       -0.07615273910604
C           -0.97737487326271       -0.37526644060077       -0.07742613456026
C           -0.74907523280287        1.07003578340459        0.12431253806113
C           -2.01168226612204        1.63043566724101        0.26256847969542
N           -2.95393857990853        0.68389515051052        0.13771265318546
H           -2.30350725788018        2.64629032535227        0.45497498092020
C            0.65136167490547        0.87058042458646        0.07267683084173
N            1.73818977441465        1.59141354095779       -0.03577629795629
C            2.86350124887416        0.91927411668962       -0.28546496556910
N            3.18903308099363       -0.31666715808355       -0.01154999081231
C            2.48385194821173       -1.38472460790495        0.27739769535957
N            1.20474267932235       -1.66014677096529        0.04773563259459
C            0.40520488191232       -0.62043576839159       -0.07243789281410
H            3.05670882606932       -2.20593751830432        0.69903648206013
H            3.66241970065213        1.51832760695630       -0.71381005246186
H           -4.11824634509351       -1.54387518919396       -0.18213253643270
H           -2.68923914041589       -2.53048091255166       -0.31801698532487
