25
 energy: -41.027749654001 gnorm: 0.000828858659 xtb: 6.6.1 (8d0f1dd)
N           -2.16039170782765       -3.05288245971688        0.00254318334886
C           -1.85376077134256       -1.94372284835009        0.00478804652764
C           -1.51619807895045       -0.57854889764434        0.00540823907887
C           -0.16907120472807       -0.23687416153806        0.00234082459294
C            1.08720884302062       -0.89131187327597       -0.00100145105521
C            1.77107935695907        0.40279392847624        0.00653780939213
C            3.13958416533966        0.16937617429141        0.01193553902107
N            4.17119113437907        1.06968629842497       -0.03930105602898
H            3.96629744108304        2.01525061398348        0.23788381700762
H            5.08178367872873        0.72935570774964        0.22309903424736
C            3.28491860391855       -1.25046673331866        0.00139765361425
C            2.04657597951734       -1.89715649421959       -0.00668490348798
H            1.89674045425669       -2.96128375402662       -0.01416422182342
H            4.23867089858238       -1.74858380124529        0.00033685167748
C            0.50827489083023        1.07190257996184        0.00517915347324
C            0.00073832728097        2.34572816787390        0.00083838874975
C           -1.36832985700372        2.62203408145836       -0.00313990169108
C           -2.45951585765383        1.77642910063746       -0.00086724746531
C           -2.57311350213140        0.36966799271461        0.00534332230016
N           -3.83382899287721       -0.12922010580917        0.01976600396957
H           -3.98367152360661       -1.12360264880493       -0.00471844045303
H           -4.62767043055717        0.48429519279256       -0.01667164686869
H           -3.42192422053390        2.27743948567159       -0.00380992435062
H           -1.62095724982041        3.67637830357230       -0.00861228489724
H            0.68635428613650        3.18219654984117       -0.00265324007931
