28
 energy: -53.809924017740 gnorm: 0.000269165192 xtb: 6.6.1 (8d0f1dd)
N           -6.14317657231916       -0.20471131370311       -0.06033532541626
C           -4.99297897980493       -0.18942801378870       -0.03067694228813
C           -3.59989662260100       -0.11517400946601       -0.00846217349151
C           -2.71173486017189       -1.22596488453738        0.00459039334287
C           -1.44717840076873       -0.69111664971399        0.00608869380577
C           -1.54582987770980        0.78361359121984       -0.00472214199212
C           -2.88984108099590        1.13577546118861       -0.01450043844845
N           -3.46658172183962        2.36150778531800        0.02556082979213
H           -4.45600939569364        2.43108299099505       -0.14365008381147
H           -2.89770873989918        3.16769240015144       -0.16336919458733
C           -0.13490843928609        0.87971395153187       -0.00514309534973
N            0.72748187089694        1.85623516152519       -0.01284804168321
C            2.04722541113231        1.65131381609067       -0.00862319930899
C            2.80516401373076        0.43682411120143       -0.00420415588020
C            4.19914226450740        0.64089447470701       -0.00530748832995
N            5.33764157767124        0.81444971627415       -0.00596012958450
C            2.41359519043351       -0.92590413010644        0.00109101425962
C            1.07659899395881       -1.42711483516790        0.00631226675006
C            0.88841874369734       -2.82349557199827        0.01121581121208
N            0.75479228397136       -3.96480478412384        0.01443635228099
C           -0.02797501504556       -0.60259925109304        0.00564362807735
N            3.39423794689725       -1.85129686323114        0.00162296541036
H            4.36241042198425       -1.57696724806610       -0.00061241916046
H            3.15892663987522       -2.83000178104335        0.00698772008898
N            2.73884682199767        2.80644301192955       -0.01176130908257
H            2.20988757415265        3.66119386934708       -0.01034329263278
H            3.74412871369931        2.82831220060556       -0.00495647944942
H           -3.01774596227050       -2.25561644794569        0.00981387487700
