22
 energy: -41.850469582823 gnorm: 0.000599622882 xtb: 6.6.1 (8d0f1dd)
N           -3.86893478079518       -2.43901103557435       -0.22919425739590
C           -3.11518271850063       -1.57752973867296       -0.12216822145413
C           -2.25970791923907       -0.48581544829977        0.00249014543781
C           -0.91838587906480       -0.35241265200605        0.08814709020431
C           -0.64906418720268        1.08810430242876        0.14028050278438
N           -1.78476814159573        1.83353975304912        0.13548559793169
C           -2.74975880610100        0.94654847375874        0.06400516706807
N           -4.04997733747742        1.25505896537082        0.03440197202551
H           -4.74368733950468        0.53447817047476       -0.06015167986920
H           -4.32352050664625        2.22140383240314        0.05528339390748
C            0.72003552604061        0.87758905522431        0.06514528663540
C            1.93199416506334        1.58397945095981       -0.20304363077427
N            3.09655562312817        1.06857289859123       -0.26490204404757
C            3.44625045908453       -0.26916311417629       -0.01259119601935
N            2.80772525618772       -1.38643629421163       -0.01596296718069
C            1.45001758745950       -1.57527150392244       -0.05991283657417
C            0.55167224153444       -0.59216360035698        0.04612795900092
H            1.16149164688901       -2.61590557111836       -0.12159434896522
N            4.77907310354701       -0.33157091077608        0.22674649362139
H            5.33649904638115        0.48245285086742        0.04125091225628
H            5.20894776222807       -1.23607549983741        0.30191507343347
H            1.86939549288389        2.64665110692422       -0.42560634442622
