24
 energy: -40.489473457569 gnorm: 0.000811927779 xtb: 6.6.1 (8d0f1dd)
N            4.45004145700693        0.12228518336812        0.03037949228410
C            3.09710115966091        0.04390276169864       -0.01761823758016
C            2.36349445989212       -1.24887018134252       -0.05678103847577
C            1.07583350777670       -0.87545362818334       -0.01562351034985
C            1.06595412729312        0.58486144802612        0.03013491845221
N            2.32371476493201        1.11127001384923        0.02803833797485
C           -0.32178863415084        0.61899276498300        0.01175660753519
C           -1.37014737265743        1.61038055611072       -0.00205722559752
N           -2.64609891898163        1.37771242101366        0.00351444025835
C           -3.26049550368034        0.16270369814865        0.01001971030835
C           -2.83376484464554       -1.12473703738360       -0.01872787091097
C           -1.49021375287943       -1.65995055125080       -0.04576648700942
C           -0.42695623566823       -0.83292405024720       -0.01842165063319
N           -1.35129204538922       -3.04003131806780       -0.16938466889488
H           -0.43104383005568       -3.38458788390052        0.05856238242210
H           -2.09640719664924       -3.58527397521106        0.23665087717269
H           -3.61080053716657       -1.87958483609396       -0.02263524541738
H           -4.33820119270604        0.30225518428065        0.03611804642469
N           -0.95513377305808        2.89624919032644       -0.01745872294191
H            0.02856528021106        3.09860890768911       -0.02443782260857
H           -1.63588362566906        3.63396036018815       -0.03548141937199
H            2.84079531742188       -2.21042064329929       -0.10667165430772
H            4.98504159893765       -0.66306067521039       -0.29866235130212
H            4.84925769772494        1.03674602200788       -0.10011248823125
