24
 energy: -41.290237072354 gnorm: 0.000362878300 xtb: 6.6.1 (8d0f1dd)
N            4.58616895524279        2.15562022521292        0.00159137583312
C            3.67724446824791        1.45349651642076        0.00003334058296
C            2.55689312568019        0.59328798788010       -0.00199882380066
C            2.83463181027554       -0.74876707252020       -0.02067374883560
C            1.99220438394398       -1.89410465892560       -0.02483239409930
C            0.62298152668638       -1.98186625472994       -0.02170500533379
C           -0.22156184184378       -0.82374003062003       -0.00282545356226
C           -1.60435770240703       -0.58835589929422        0.01319000507366
C           -1.34754016661482        0.84879635353887        0.02047821337539
N           -2.41793584519217        1.57212124876994        0.00488291078219
C           -3.45018060899343        0.61281225385744       -0.00650554946699
C           -3.00179253896078       -0.70706108315625       -0.00599678885621
H           -3.62236736922420       -1.58159064699987       -0.01512096144135
N           -4.72817513642781        1.06987439089154        0.03491828516703
H           -4.84682370122398        2.04937340380695       -0.16137114451932
H           -5.46664361648297        0.44977721396429       -0.24962685432008
C            0.11970044654979        0.58852709448825        0.01384831739962
C            1.27523310193479        1.26590234183314        0.01647695017715
H            1.28130997182898        2.34559136721412        0.02968110821907
N           -0.01638208980906       -3.18453219649566       -0.07680220209434
H            0.50248742134806       -4.03266366613669        0.06796924690830
H           -1.00614038993032       -3.20151285366755        0.09647637703460
H            2.52300783208247       -2.83911628367020       -0.03525750271887
H            3.89139409238945       -0.99332552496207       -0.03056424300430
