22
 energy: -37.070926132768 gnorm: 0.000188913244 xtb: 6.6.1 (8d0f1dd)
N           -3.04512941352296       -2.08794997907036       -0.02514404218023
C           -2.57890520681460       -0.80332529249337        0.01453678965659
C           -1.26885307683240       -0.34718830045852       -0.00685406734083
C           -1.29073356699849        1.12115698989152       -0.02344669946043
C           -2.61883284420205        1.53581081696948       -0.01681210090105
C           -3.38997492223399        0.37294059146234        0.00542296782342
H           -4.46625901355794        0.35040288010356        0.01633565498617
H           -3.00578230427819        2.53885421803271       -0.02470424376932
C            0.12213779691593        1.16276902817028       -0.01823382811017
C            1.18682312372409        2.04664886511838       -0.00355073194112
C            2.49470431870044        1.58460227518148        0.02062887789689
N            3.00507076451102        0.36188886373502        0.01725667970025
C            2.39723838560016       -0.81973049010904        0.00284754961911
N            1.10323644966455       -1.21341202134831        0.00921698734549
C            0.15169884310959       -0.32667711565946       -0.00409392793851
N            3.25564884080290       -1.85854334675604       -0.01005011135682
H            4.24265351634212       -1.67565743314730       -0.02552667869395
H            2.89259193821213       -2.79411200148468       -0.03351176030948
H            3.27849276992015        2.33968265237661        0.04380900890910
H            1.00818268623700        3.11325044445023       -0.00397811744001
H           -2.38956702490390       -2.81301331325210        0.21411239731941
H           -3.99726610099555       -2.24100931911247        0.26398395098550
