24
 energy: -41.307225220310 gnorm: 0.000818799085 xtb: 6.6.1 (8d0f1dd)
N           -2.25918335323652       -3.06592102174060        0.00057281890048
C           -1.91903781645166       -1.96695932920573       -0.00340227887321
C           -1.53926376448202       -0.61333013285832       -0.00683164851188
C           -0.18801075934861       -0.28490679753521       -0.01623369055269
C            1.07347897384711       -0.91533942430408       -0.01857922145321
C            1.74863761079469        0.39002065600222       -0.00694554063250
C            3.12103548862871        0.16889746293005        0.01622366543311
C            3.27655690246546       -1.25060322536139        0.01325613689893
C            2.04587792627841       -1.90949679450277       -0.00672277618586
H            1.90747248911154       -2.97512507652137       -0.01121242048472
H            4.23391390762971       -1.74165205266672        0.02737940256317
N            4.13294866417397        1.07977315054673       -0.02037515085254
H            3.89965126047436        2.03635970368528        0.18592019878393
H            5.05452877294805        0.77168790752845        0.24018895254794
C            0.48955825273687        1.04465055149733       -0.00773893968383
N            0.07998612021559        2.28083292940584        0.00333052044996
C           -1.22555888362716        2.56480233741281        0.00295667852687
C           -2.35952636349500        1.78190027324351        0.00134068032654
C           -2.55313327890933        0.37704435764128       -0.00018371533450
N           -3.83520826959739       -0.05272536247222        0.00634291021981
H           -4.03706745378352       -1.03852545750507        0.00419843261477
H           -4.59592157344732        0.60289562647281        0.00952055106562
H           -3.28962297293226        2.34039491923468        0.00414346645170
H           -1.40050310049361        3.63733191757237        0.00692176748208
