19
 energy: -29.888457214891 gnorm: 0.000333412563 xtb: 6.6.1 (8d0f1dd)
C           -3.12337569726704       -0.01918107498256        0.00006534519447
C           -2.49912957573042       -1.30014031800662       -0.00029225337259
C           -1.17625566335041       -1.63131073243316       -0.00065887621541
C           -0.13733391511555       -0.67986909391494       -0.00074979226368
C            1.27159067626872       -0.64931288482507       -0.00109310287023
C            1.28024616185721        0.80094413093872       -0.00087924321824
C            2.59043539401064        1.17151877158352       -0.00117426119019
C            3.29544118567548       -0.09237549564044       -0.00148487609309
N            2.52068553408676       -1.16412441225376       -0.00150495792229
H            4.36502435009792       -0.20503005852153       -0.00178765902837
H            3.05329287966452        2.14002210582000       -0.00116066534912
C           -0.19590732035130        0.77474356937308       -0.00051509580631
C           -1.22973679071038        1.64979384399458       -0.00012593953884
C           -2.58876731700748        1.23906090883364        0.00013940033575
H           -3.30476189461565        2.05272625386242        0.00044478142024
H           -1.02608969944733        2.71123186216510       -0.00001227205810
H           -0.89181976633608       -2.67461563322305       -0.00089762927488
H           -3.19802150653549       -2.12870927240941       -0.00025971688244
H           -4.20563725339413       -0.06404042496053        0.00032094133332
