25
 energy: -45.826039765279 gnorm: 0.000893654409 xtb: 6.6.1 (8d0f1dd)
N           -3.72351255342461       -3.37204255134504        0.01060708751376
C           -2.97029509205766       -2.50566320775945        0.00862222769603
C           -2.02627073840809       -1.45367748884824        0.00570068260667
C           -2.53884177560929       -0.18898558291980        0.00448623040521
C           -1.91862078124103        1.10593398304961        0.00109726664619
C           -2.82096699645423        2.18864764617626       -0.00140248040492
N           -3.53465318657175        3.09012462739985       -0.00245674138573
C           -0.56709513570773        1.43739529256590       -0.00082688012661
C            0.44923705603138        0.43544171932325       -0.00075405760197
C            1.83744904807055        0.42043988142031       -0.00553575205689
C            1.86735002693896       -1.04554760902940       -0.00597699056655
C            3.16080431520502       -1.40029508930060       -0.02187097264436
C            3.87355167834441       -0.09533472171217       -0.02713108846399
N            3.07672419961122        0.96494502561696       -0.01838625933410
N            5.21027194200783        0.01233431834957       -0.01441028423962
H            5.78759085052451       -0.79991104252520       -0.13386515618509
H            5.62034084962255        0.92670143912731       -0.08633160117760
H            3.64964646249833       -2.35540661708851       -0.02916155170739
C            0.37490573763746       -1.02894352574149       -0.00031171681284
C           -0.64087986611587       -1.89218347411042        0.00250099269023
H           -0.46571506310632       -2.95829657471130        0.00275969681764
N           -0.14069952543683        2.71596343548383       -0.00439457479228
H           -0.79562324042029        3.47950828793003       -0.00242139278882
H            0.84872083901232        2.89632961763797       -0.00263604505344
H           -3.62316986055094       -0.13028627058929        0.00605379206640
