22
 energy: -38.657736444725 gnorm: 0.000755798997 xtb: 6.6.1 (8d0f1dd)
N           -4.13534070426744       -0.44046540262157        0.00139160063897
C           -3.01891235529333       -0.70504177518230        0.00023490204771
C           -1.64273718398636       -1.02242887789885        0.00056409416270
C           -0.72523017185460        0.03280745431837        0.00057790337091
C           -0.73309431022986        1.46177462870433        0.00075318775577
C            0.73153304624017        1.46256576123143        0.00047324217892
C            1.16738939649747        2.77533879564319        0.00054635119998
C           -0.00191522912501        3.56435574951811        0.00093063367367
C           -1.17036783371146        2.77407545566824        0.00108350004785
H           -2.17873236683567        3.14408937608877        0.00138048868446
H           -0.00249617054262        4.63958044084443        0.00109080719009
H            2.17535406677683        3.14644058573400        0.00036220321443
C            0.72521333828606        0.03359227302964        0.00029605153532
C            1.64386275316644       -1.02065053418524        0.00002993151804
C            3.01969411948937       -0.70176997905125        0.00020762530961
N            4.13584546015611       -0.43598225289175       -0.00020374786617
C            1.26870730170212       -2.36834780249010       -0.00012318151865
C            0.00160323057736       -2.94336360982845        0.00003758673295
C           -1.26612169438285       -2.36972076717069        0.00035249377228
H           -2.09250021599914       -3.07168183501452        0.00034884086083
H            0.00218987765775       -4.02602511440823       -0.00012860690585
H            2.09584541747867       -3.06941375643759       -0.00034048090384
