25
 energy: -41.021305024634 gnorm: 0.000798576406 xtb: 6.6.1 (8d0f1dd)
N            4.15730991308169        1.44147734093691       -0.04951088491450
C            3.41326496810396        0.56286040907739       -0.03685068529402
C            2.43607179382311       -0.42915602276095       -0.01669918253897
C            1.04041485125694       -0.20703775012619       -0.01351113178132
C            0.38506637500282       -1.47748103481457        0.01627763022028
C            1.32814931363179       -2.47355805244895        0.03497941857267
C            2.59517834765085       -1.82338883864873        0.01330428386848
H            3.54302455277507       -2.32973804731089        0.01906825075500
H            1.19384794031968       -3.54080029892110        0.06294989859045
C           -0.92947137381233       -0.76896493980915        0.01731670431729
C           -2.26780010555391       -1.08221445771103        0.02908692574872
C           -3.26268544075736       -0.07453558383183        0.02336020730513
C           -3.13049334752801        1.29401909353319        0.01501083461023
C           -2.00640078583699        2.13570158264872        0.00073581620579
C           -0.65852749181987        1.81178536127414       -0.01801841149934
C           -0.22175841339670        0.46916054957447       -0.01006540810568
N            0.30133500040204        2.77693116812933       -0.08834985518393
H            1.26493713287909        2.51283849462976        0.02973705638162
H            0.05758536099579        3.73983274553490        0.05876175118549
H           -2.22846720516487        3.19675300621472       -0.00193032372378
H           -4.07057517498423        1.83296847014585        0.01928566722053
H           -4.27976923164854       -0.44913799313750        0.03356783493288
N           -2.65484012045033       -2.40464621421546        0.12041772721839
H           -1.94557359968870       -3.08227955638475       -0.10711661796549
H           -3.58422092158074       -2.63509559077861       -0.18926786552572
