27
 energy: -50.075298636877 gnorm: 0.000658903039 xtb: 6.6.1 (8d0f1dd)
N            5.03711582784830        0.19234971602394       -0.00602896457293
C            3.89180085306143        0.09833525564788       -0.00628649879462
C            2.48115767168337       -0.00817412359183       -0.00682430968642
C            2.03100348607446       -1.33337423165847       -0.00643520985213
C            0.74294361753182       -1.86469000845938       -0.00493145965933
C            0.59803967012328       -3.26980020716040        0.00130504658137
N            0.47680294782626       -4.41056167799717        0.00898158395395
C           -0.40813680273664       -1.07643644955540       -0.00974057223690
C           -1.81414298248439       -1.20630774406527       -0.00607974291750
C           -1.94824557668054        0.26338827290650       -0.01086699458989
C           -3.29896595602997        0.58457744483111        0.00542679102957
C           -3.98067212653526       -0.67757684298925        0.01993631548144
C           -3.09244623297037       -1.75403341985655        0.01437516510852
H           -3.36907566977734       -2.79206045846299        0.02484995382425
H           -5.05230348934048       -0.76897589652131        0.03498879809189
N           -3.88029100050453        1.80451094361458       -0.03696714656008
H           -4.86759651211607        1.88881206147462        0.12981967006985
H           -3.30759168864799        2.62389125343764        0.07397895812704
C           -0.53885990232090        0.39253123641071       -0.01259386489951
C            0.38559188557742        1.42262324086813       -0.00267450449155
C           -0.14505192776302        2.72632713932419        0.01751991498586
N           -0.62275067665780        3.77210079276219        0.03983625480622
C            1.79500652032172        1.24155105790499       -0.00298328112068
N            2.54793782407165        2.36016691722767        0.00242767497549
H            2.10642649797299        3.26464544263754        0.00539652611264
H            3.55293794565218        2.30109314172596        0.00344517808076
H            2.83003105842000       -2.06820735207955       -0.00587197104722
