27
 energy: -48.480474260972 gnorm: 0.000885202997 xtb: 6.6.1 (8d0f1dd)
N           -0.83649543993473       -3.69821058645993       -0.04289774806956
C           -0.99708729421888       -2.55814877746586       -0.01515902812818
C           -1.18930429868340       -1.16905037226871        0.00951705466157
C           -0.07783401726637       -0.34637998275224        0.02862474841948
C            1.32476307602705       -0.44722347761680        0.03107934330818
C            1.44692123529691        1.02451306055661        0.02952968328206
C            2.81289137145121        1.27799818463318        0.00098609316456
N            3.50312437903997        0.10349342188276       -0.01381402040515
C            2.63655325067086       -0.93460851976258        0.00402892801619
N            3.07334482928847       -2.21696853027296        0.06048382764812
H            2.41921813114393       -2.94845941921672       -0.15919793596980
H            4.04283931660338       -2.37256196091308       -0.15547510606358
N            3.48658439241816        2.46266627116242       -0.08178615341838
H            4.47320030242261        2.39743576656237        0.11008825563021
H            3.01938489348544        3.28007967071427        0.27342029406874
C            0.02786251921783        1.14230812945387        0.03248400006056
C           -0.95042155997172        2.09119150929233        0.02726845836881
C           -2.32711876485582        1.76893762780321        0.01662994678224
N           -2.95334576670485        0.59833218577972        0.00594250237353
C           -2.52135641582029       -0.64967588313334        0.00551704017778
N           -3.52760766063100       -1.55871627072676       -0.01468030608654
H           -4.47345133067217       -1.22370121200008        0.00622800278438
H           -3.33440556986108       -2.54427245312908        0.00955041070990
N           -3.19987603237222        2.81401721698452        0.04683148505599
H           -2.87868643953381        3.75350819394518       -0.09731152654834
H           -4.17659685244263        2.60730968474852       -0.06393277266768
H           -0.68159194869592        3.13958504119907        0.02836601224488
