20
 energy: -33.597194961070 gnorm: 0.000282829662 xtb: 6.6.1 (8d0f1dd)
N            4.02213845120530        0.03983938324095        0.01323155448354
C            2.65516115031669        0.07474183810599       -0.02432399311007
N            2.14720559705079        1.26194974065647        0.03208854389062
C            0.83442916891610        1.61470621295488       -0.00684797586233
C           -0.20011398313989        0.76713079842539        0.12948417059635
C           -1.67699593865705        0.71403338663906        0.15045597337473
C           -1.64546020565363       -0.72054403322504        0.47479661799771
C           -2.97386690137125       -1.16631986528888        0.27003530921508
C           -3.63683404196543       -0.04491727495625       -0.17030899459795
N           -2.82121500981502        1.07055470165868       -0.33654387459654
H           -4.67395196035620        0.04210463750565       -0.43749878584575
H           -3.39675189857982       -2.13252463125174        0.46467648715103
C           -0.27127907175780       -0.68721767149119        0.23063755304625
C            0.75507371920966       -1.61101984083947       -0.12259179585977
C            2.04862358438079       -1.24754390403978       -0.22777067881941
H            2.76844985950348       -2.01681355804096       -0.48117945643724
H            0.47320594385750       -2.64353546008494       -0.28685328128138
H            0.67583684303753        2.67959866578957       -0.11289148542995
H            4.47968774622076        0.90645438400710        0.24007019151948
H            4.50501366269740       -0.81559537616546        0.22163247726557
