24
 energy: -42.107617629591 gnorm: 0.000692758741 xtb: 6.6.1 (8d0f1dd)
N            2.41198459228291        3.55113258107413        0.02245870377469
C            1.98941490673189        2.48136167778836        0.00083092303810
C            1.50363353529298        1.17546213619066       -0.01514303268629
C            0.18215354676745        0.71569777440649       -0.01834103758363
C            0.18258197207612       -0.71556773174701       -0.01855133315582
C            1.50434515699824       -1.17454228938260       -0.01559986731757
C            1.99094606219141       -2.48015543052903       -0.00078687857363
N            2.41396135843394       -3.54973117914282        0.02236359657115
C            2.32280186016793        0.00070356849410       -0.01501269789603
N            3.67546090301935        0.00111290084865       -0.06172556377421
H            4.16942466329172       -0.86251878384323        0.08226619803944
H            4.16891806438355        0.86496882600544        0.08261376482206
C           -1.26350721194128       -0.72320335856065       -0.01198041189306
C           -2.29767431794725       -1.64154381577393       -0.00439974169944
C           -3.63577142245266       -1.27027972442382        0.00569786879980
C           -4.21658823091958       -0.00125537910301        0.01048482025331
C           -3.63653915173684        1.26811415454709        0.00602896816458
C           -2.29865899891585        1.64018428895545       -0.00396482778919
C           -1.26394614473681        0.72246851253989       -0.01179659298158
H           -2.05141854916594        2.69229333075367       -0.00495698407787
H           -4.34400854388511        2.08921848901052        0.01182571134649
H           -5.29915433097031       -0.00158444607217        0.01937637158362
H           -4.34274751585250       -2.09180865241034        0.01135211038015
H           -2.04979835651351       -2.69350282902587       -0.00564908444500
