21
 energy: -33.333488328183 gnorm: 0.000411978734 xtb: 6.6.1 (8d0f1dd)
N            3.13625698342431        1.70323459588149        0.06449482512826
C            2.43431755909841        0.53780573261166        0.01268037826258
C            1.04875921846513        0.34790167909647        0.01210174854671
C            0.78730212678914       -1.08658143625337        0.00678799110202
C            2.00856847053885       -1.75559610494075        0.01096796510280
C            2.99863589952902       -0.76950563141973        0.01488426190007
H            4.05767398524637       -0.95919193055568        0.01794118427341
H            2.18744409091121       -2.81536737099527        0.01082024948211
C           -0.61051229887672       -0.83950117544217       -0.00229619978956
N           -1.69724601870040       -1.57178821009705       -0.02214428658872
C           -2.90007051046583       -1.01407501343977       -0.02499510986660
C           -3.32266821099208        0.31642205736913       -0.00544726350078
C           -2.59536476663662        1.50748795050882        0.01707440514027
C           -1.21771634900337        1.69349728118440        0.02335266702439
C           -0.34243576451656        0.62706491114904        0.01057413868698
H           -0.83000791637823        2.70396702582584        0.04083577057603
H           -3.19368016099087        2.41176587318797        0.02930521086006
H           -4.39913984192248        0.43917086457936       -0.00915142639490
H           -3.69284939545896       -1.75734926559015       -0.04416339640264
H            2.65583081672449        2.55808740157774       -0.15725569570442
H            4.11987188961519        1.67006775926203       -0.14413159203811
