27
 energy: -44.454994169998 gnorm: 0.000815652769 xtb: 6.6.1 (8d0f1dd)
N            3.97057510711993        2.48682339570630        0.01016223574485
C            3.25885025135054        1.58287557976562       -0.00945480819984
C            2.43131012680919        0.46139688868350       -0.01320316578688
C            1.06865942722032        0.35972546585250       -0.00389753185994
C            0.70058681588279       -1.03621815666785        0.01803382506167
C            1.87336006240559       -1.81909788109412        0.02349570625011
C            2.92929052766871       -0.92549222468045        0.00316911441349
N            4.26993123129449       -1.21623175020198       -0.07710130065142
H            4.90025635661916       -0.47521497501446        0.18756681585187
H            4.54627553748469       -2.13746739459318        0.22176390891279
H            1.96389804552067       -2.88973438928648        0.04063274927029
C           -0.66799113460668       -0.68148051752554        0.03694748151429
C           -1.92016256498704       -1.35836222984858        0.05613437421584
C           -3.11862472596728       -0.69507887750664        0.04841413982278
C           -3.42312543719493        0.70513047552625        0.04122136436573
C           -2.57494452963468        1.78779557001377        0.01807211606361
C           -1.15463128545915        1.83242604227376        0.00577358650090
C           -0.37730974700122        0.73134655247643        0.01264660438021
H           -0.69176550288323        2.80850363956976       -0.01469156342861
H           -3.06106322602449        2.75614505040974        0.01304233131633
N           -4.78448098477816        0.97553264126024        0.12796804610602
H           -5.41481736618403        0.25933259164434       -0.19336123348345
H           -5.06745692699707        1.91181437578699       -0.11150345042666
H           -3.99795646901691       -1.33192606400659        0.06433791587356
N           -1.86925181041369       -2.72856093121513        0.13436667954833
H           -2.69976670285615       -3.25327885359931       -0.07992525901474
H           -0.99214344017146       -3.15989840192875       -0.10372886006112
