16
 energy: -30.695122539273 gnorm: 0.000606753053 xtb: 6.6.1 (8d0f1dd)
C            2.92903157194532        0.03200506301027        0.09836798024067
N            2.54680475748216       -1.19012727536543        0.06052569548444
C            1.26488018632040       -1.62297922815918       -0.09968191471063
C            0.20537096639717       -0.84632772390565        0.19372519370975
C           -1.26580249354206       -0.78292395307437        0.22592906483435
C           -1.24463544537129        0.60866021414831        0.72371241427025
N           -2.46200368934083        1.15400009807841        0.53650765951633
C           -3.11372675203355        0.18743755847567       -0.06987115455041
N           -2.40019266224592       -0.95558866310920       -0.38130397636435
H           -4.13762181157347        0.28639764266138       -0.37448661992409
C            0.11123903300405        0.59881852819732        0.39608164178723
C            1.07605588880692        1.45913161363947       -0.25880886844960
N            2.31227181920700        1.16974836976090       -0.32859673818909
H            0.74100627402285        2.37182593933332       -0.74180903268932
H            1.16298088812389       -2.66687892779830       -0.35948911637516
H            3.96881747409729        0.19695091630726        0.36316328210953
