20
 energy: -37.599963543214 gnorm: 0.000649505727 xtb: 6.6.1 (8d0f1dd)
N           -0.92123372650177       -2.97600911348155       -0.18896779791381
C           -1.07517628357468       -1.65216034115795        0.09713211962562
N           -2.37336736373362       -1.23106884969434        0.19512117512825
C           -2.79123752502147       -0.01567253143664        0.22238534696449
N           -2.22704224002952        1.17956456088870       -0.04921045275179
C           -0.96932269152604        1.49239831615970        0.01577683023106
C            0.02966770520475        0.59468820791448        0.57276990985784
C            1.39836026343540        0.66688041132765        0.86582570778077
C            1.44807639050298       -0.72295357277101        0.38164081220768
N            2.53186879153219       -0.85851049202116       -0.32120620673923
C            3.21367050996178        0.32931531283942       -0.09760290365148
N            2.56661117121406        1.27855785666583        0.53275980334799
H            4.20675709614588        0.46332381562502       -0.48192457161967
C           -0.03181705195908       -0.83486624930071        0.40922766033319
N           -0.54639883419829        2.68515880578173       -0.42441571325284
H            0.41406546130324        2.95455224894857       -0.29133197794611
H           -1.20370648066350        3.32608054170220       -0.83445951817041
H           -3.86168108095523        0.07989350411171        0.39088818547777
H           -1.72434389748294       -3.45496747956337       -0.55657737263664
H           -0.00659736875424       -3.30556833313842       -0.44292532227244
