25
 energy: -45.812782063088 gnorm: 0.000985074763 xtb: 6.6.1 (8d0f1dd)
N            4.79829758098081        1.55144275331529        0.27051648931913
C            4.07857802119420        0.65717781590908        0.20069635743432
C            3.12187625623970       -0.35112875823831        0.10409936214171
C            1.72476794006372       -0.21715210367130        0.34552565457557
C            1.18743199362973       -1.54627955889506        0.12711852979770
N            2.08489818825948       -2.39374859678816       -0.28134029097074
C            3.27405735457946       -1.69833944305038       -0.22481739245817
H            4.19055171917250       -2.20818131310833       -0.45516987962580
C           -0.20265086707725       -0.98713843593395        0.14401761737775
C           -1.48454464472506       -1.38313504013967        0.07345856844251
C           -2.58974921497522       -0.47613587979849        0.05861903368707
C           -3.85014213051188       -1.10368371006511        0.06520486846675
N           -4.87920634321170       -1.61741902436864        0.06581237715848
C           -2.58847578695388        0.92642390172838        0.00572976619511
N           -3.80523309051045        1.54319081294684        0.02511314250457
H           -4.64343890503513        0.98963498631375       -0.02336590262503
H           -3.87818494913842        2.52841960051541       -0.14991233307488
C           -1.48240598852947        1.82087675010105       -0.06632356778035
C           -0.12384127371922        1.60746268190021       -0.00757999851531
C            0.42566042556880        0.30870338314289        0.19896165061435
N            0.75886136238252        2.62856941968287       -0.12316844913009
H            1.74229088092166        2.45519437906109       -0.00646668461798
H            0.44688039179037        3.57813849125253       -0.21376089780795
H           -1.77444069543955        2.86122502652837       -0.16889060598170
H           -1.72009660865575       -2.43656326523975        0.02046133467289
