28
 energy: -48.175198883711 gnorm: 0.000608656132 xtb: 6.6.1 (8d0f1dd)
N            4.32442752105030        2.01751705243887        0.13187668672316
C            3.39631282782702        1.33787521822027        0.03757848801682
C            2.26633708718270        0.51127683958532       -0.02945396082843
C            2.51003152196095       -0.85942905173235       -0.04516491032150
N            3.82427763793729       -1.25040050455923       -0.10669186085345
H            4.54018681307573       -0.55426657110561        0.01768999563511
H            4.06455041191785       -2.20081273164082        0.11094573981116
C            1.59888760210773       -1.96333154599254       -0.04660264609005
C            0.23065029578302       -2.00279608854544       -0.01520807712571
C           -0.56858905331962       -0.82135964180354        0.02080296078766
C           -1.92280442981117       -0.51930799826225        0.05566798787781
C           -1.64967600839733        0.91567013352747        0.00205071355754
C           -2.84041263267627        1.52901506488538       -0.05389240229438
C           -3.81149544091224        0.40205089139344       -0.00857208114304
N           -3.25934675973051       -0.79402852630831        0.04961116799894
N           -5.15432461784508        0.58810479569918        0.02901810381384
H           -5.72291320318858       -0.23159297266388       -0.10227044028266
H           -5.52259122828877        1.46043302974709       -0.30941583825713
H           -3.12343379467737        2.56360771029150       -0.11769608151256
C           -0.18244812215870        0.58334814738588       -0.00926661559767
C            0.99434633752864        1.22885183144359       -0.05368888635336
N            1.04933155909887        2.61154805433917       -0.18733892395121
H            0.19675147160499        3.08659585698073        0.06461975302139
H            1.88944030887379        3.05739694590809        0.14805933903962
N           -0.45559901865998       -3.17280540289167       -0.02961158831680
H           -1.45730616552634       -3.13766072193714        0.04192676687588
H            0.01561952252332       -4.05812274934314       -0.00716602237848
H            2.09136152081994       -2.93011764665927       -0.07557980415256
