22
 energy: -37.866040412710 gnorm: 0.000568262709 xtb: 6.6.1 (8d0f1dd)
N           -1.42157711628127       -3.25416699545116       -0.00095518685226
C           -1.25673103705298       -2.11582729228000       -0.00139745403332
C           -1.10865274669384       -0.71761482767691       -0.00138447783652
C            0.16597189144565       -0.16184708407769       -0.00111523044368
C            1.52071676282042       -0.58785106104774       -0.00082534666633
C            1.97407252734835        0.80738159428999       -0.00117391504590
C            3.35332810245049        0.81388965518735       -0.00124086799274
C            3.74244680852789       -0.54411953564874       -0.00084762370015
C            2.63442321947583       -1.40994225827557       -0.00059461895150
H            2.67441369116599       -2.48346789359921       -0.00028603474361
H            4.76616588350813       -0.87590123698126       -0.00081935060671
H            4.02256662763959        1.65399904180668       -0.00154533136131
C            0.61135646558546        1.24372720515301       -0.00145351052285
N            0.00105052374980        2.39693961410589       -0.00189825565726
C           -1.33117469083765        2.46391639082031       -0.00217846069800
C           -2.32373417067845        1.50692280972800       -0.00220907938393
C           -2.27861873397963        0.08827475415299       -0.00189585606163
N           -3.46301656007518       -0.55011631873023       -0.00213054702770
H           -4.32553230660408       -0.03420431463223       -0.00255589890902
H           -3.49571073110816       -1.55688910915962       -0.00197192765512
H           -3.33310303232762        1.90324433608335       -0.00257125493448
H           -1.67902204507878        3.49321041603282       -0.00248778791601
