27
 energy: -48.460778570603 gnorm: 0.000607473376 xtb: 6.6.1 (8d0f1dd)
N            4.34598274933765        1.95537341181440        0.03739565929483
C            3.39104862395060        1.30795620542853        0.01055442795438
C            2.23250449822255        0.52236359045477       -0.01513937549056
C            2.43400879974772       -0.85746310493940        0.01944822251703
N            1.58416800777847       -1.91798225555792       -0.04029033552072
C            0.28556529640746       -1.93193048848353       -0.01560184950261
C           -0.56659948977207       -0.77985393859727        0.07359982053172
C           -1.92337005933601       -0.50433483830862        0.11871618608065
C           -1.67572163727989        0.94012391056799        0.04051728773841
C           -2.87455954896637        1.52575157193875       -0.05678413079560
C           -3.82796275938066        0.37678227593271        0.00916573044960
N           -3.25337481232341       -0.80527938254647        0.10253319633243
N           -5.16860493284951        0.53891510984828        0.01853827861802
H           -5.73234928017488       -0.28963570105853       -0.06496458725285
H           -5.55781355482382        1.40889830419929       -0.29946689304377
H           -3.17806358634636        2.55107035853074       -0.16091737030830
C           -0.20392515407431        0.63444608885566        0.03096188235322
C            0.97745826128150        1.26948391199165       -0.04864434863984
N            1.05864210046899        2.64404564756358       -0.21513341016536
H            0.22507527395607        3.14960581734722        0.03926828256228
H            1.92048302252999        3.07737877526774        0.07877533803432
N           -0.33500405884976       -3.12495223116971       -0.09189907646874
H           -1.33849334648551       -3.15771491106595       -0.05098687247796
H            0.20745555762672       -3.96824544245763       -0.14971624710713
N            3.71538146659742       -1.31171648726930        0.13957450058876
H            4.49027508374523       -0.67980866924731        0.03708907092541
H            3.85910748641172       -2.29768721643980        0.01670535619253
