26
 energy: -45.557739784478 gnorm: 0.000510864361 xtb: 6.6.1 (8d0f1dd)
N            1.87618403195952        3.46500315840684       -0.01009180158778
C            2.09456595945285        2.33680522200166       -0.00757654534307
C            2.27396165257525        0.93839165531137       -0.00370558599267
C            1.11570175664372        0.17573363601214       -0.00033752238667
C           -0.28142473631160        0.36830901715446        0.00107538133347
C           -0.49809733810130       -1.07743201528541        0.00640707719483
C           -1.87458614282538       -1.31730944865283        0.01080036515492
N           -2.54377814803426       -2.48810715980308        0.04787972815357
H           -3.54518768698494       -2.48525162158880       -0.04423679102299
H           -2.04950164965578       -3.35375676174117       -0.07088129315547
C           -2.49667501328174       -0.02420499911823        0.00954882367748
C           -3.87138745698863        0.17862042277511        0.00719806011271
N           -5.01294053846244        0.33810433041837        0.00060731362128
C           -1.51540211480749        1.02324234700003        0.00395653859430
N           -1.76817674678626        2.34179380810445       -0.00596453026689
H           -2.71541204425349        2.67760974478088        0.01522546875286
H           -1.00720166579460        2.99881276372277        0.00512531499216
C            0.90684996791038       -1.29728032590586        0.00489936896562
C            1.82363746828296       -2.32183526200184        0.00912501980237
C            3.20078808592379       -2.12414374238920        0.00774846849875
C            3.94588550192913       -0.94231530917600        0.00270481945027
C            3.56640879473586        0.39079177537829       -0.00231405796169
H            4.37341013000806        1.11421298608988       -0.00516355157075
H            5.01876203525550       -1.09627921061353        0.00322333548745
H            3.79571783793605       -3.02980396285149        0.01176791744198
H            1.45974713577478       -3.34153762882885        0.01505849635406
