26
 energy: -44.759219532819 gnorm: 0.000794138286 xtb: 6.6.1 (8d0f1dd)
N           -1.53080936064486       -3.61683774118137        0.04013771233092
C           -1.36136323683004       -2.47812113584195        0.02615450125589
C           -1.20722123846783       -1.08361532976493        0.00861663136636
C            0.06414470605522       -0.53130847342543        0.00914886449379
C            1.41805185912245       -0.94357789716795        0.01956668288004
C            1.85278794949381        0.45972554056951       -0.01857139076970
C            3.23734721729778        0.48273603559924       -0.02779635881421
C            3.64112161033200       -0.88387569052264        0.01144836444984
C            2.54444372088437       -1.75215465121328        0.04014365848054
H            2.59636717438680       -2.82504076892803        0.07085905392630
H            4.67101878976815       -1.19702837143653        0.01724469936580
N            4.09122669462083        1.56353014073767        0.00352898344762
H            3.71361451444927        2.43373258457518       -0.33558924927831
H            5.03757393235171        1.37847486776584       -0.29015074017177
C            0.48876198407470        0.88236946373942       -0.02036066075181
C           -0.24714234170844        2.03288071223957       -0.02419977149300
C           -1.65974054271293        2.03446974101998        0.00244464950368
N           -2.53721588128666        1.03698045550574       -0.00622880827333
C           -2.38847500940426       -0.27784924465648       -0.02017900524205
N           -3.56949528111422       -0.93564955817533       -0.05709187530162
H           -4.41665528650228       -0.39682900743861       -0.07034418512121
H           -3.60187163754320       -1.94037806497601       -0.05594671890715
N           -2.27034679348904        3.24605875438481        0.01491235627992
H           -3.27121420031125        3.27040364011722        0.09618176235940
H           -1.74225101926881        4.09326134316655        0.11522561489785
H            0.25441122154694        2.99148215470911       -0.03246362471417
