25
 energy: -41.027749690904 gnorm: 0.000827149319 xtb: 6.6.1 (8d0f1dd)
N           -2.16000547474139       -3.05298388672360        0.00236787860438
C           -1.85345533745812       -1.94380402767296        0.00438446328114
C           -1.51605688236044       -0.57858758714437        0.00477032670861
C           -0.16897949555573       -0.23674132986930        0.00134443846974
C            1.08738017478185       -0.89103726598814       -0.00221289369193
C            1.77110138579167        0.40314787807615        0.00515442647973
C            3.13962936405003        0.16988538791242        0.01035277324728
C            3.28512668379623       -1.24993516512025       -0.00009169692738
C            2.04686099348037       -1.89677131358184       -0.00789645075445
H            1.89714869679476       -2.96091491251121       -0.01526179346082
H            4.23893490021892       -1.74793970009823       -0.00125499599850
N            4.17113439448524        1.07031552600854       -0.04111939321903
H            3.96615148652689        2.01585284558772        0.23611671525945
H            5.08177057209303        0.73009078399638        0.22129496599695
C            0.50821042020870        1.07210794451134        0.00386748057191
C            0.00051559207791        2.34586804904747       -0.00061634542727
C           -1.36859062764101        2.62200608787895       -0.00436057215118
C           -2.45966896401191        1.77626517510945       -0.00165366059026
C           -2.57309417677450        0.36949048976724        0.00484762368594
N           -3.83374154299631       -0.12955252560180        0.01971435828902
H           -4.62766966024581        0.48386019020393       -0.01661202107657
H           -3.98347074527055       -1.12395780221313       -0.00457852438024
H           -3.42214422192784        2.27714949267428       -0.00445588555598
H           -1.62134174671019        3.67631997500900       -0.00997410840127
H            0.68601871628816        3.18242905684196       -0.00437202415930
