28
 energy: -49.000848172770 gnorm: 0.000715139148 xtb: 6.6.1 (8d0f1dd)
N            0.98858576234330        3.92719880136360       -0.02593189130301
C            1.37846099876445        2.84586029792626       -0.00626744214813
C            1.78757822497659        1.49921699489068        0.01338087597749
C            0.78631300444999        0.54036036953228        0.02440879208284
C           -0.62049927096138        0.47108772433081        0.02120746222729
C           -0.56497214704993       -0.99547164187202        0.02859877322563
C           -1.86344873671216       -1.48500313382936        0.01345592907265
C           -2.71816322733413       -0.32697043783401       -0.00566698549565
C           -4.10564853590738       -0.38826828447924       -0.02268652247355
N           -5.25697488734278       -0.45070344884956       -0.03237935348757
C           -1.95309667657175        0.88317350846030       -0.00123756889501
N           -2.45041060178765        2.13712527393135        0.02092187509823
H           -1.82407003142717        2.91801572078445       -0.06990215513131
H           -3.43674789183233        2.28501537525981       -0.10255541914316
N           -2.31365909388680       -2.76615296779759       -0.04157515750291
H           -3.29448008643598       -2.92539969423679        0.11932557245118
H           -1.68134638544213       -3.50975535612325        0.19563616116026
C            0.86039301343668       -0.94380700581645        0.03158818380501
C            1.93363155358755       -1.78941614897819        0.02331970546913
C            3.27591907778970       -1.36854371514702        0.01464781193931
N            4.21724488129341       -2.35568969644291        0.04050476613253
H            5.18666527448093       -2.12926580106376       -0.09136699238030
H            3.93958081495548       -3.31262863773489       -0.08222973585553
C            3.77689475172097       -0.04645088313442        0.01343165149311
C            3.15764759542698        1.18306310099014        0.01282427588261
H            3.82210983224792        2.03956707537249        0.00637530455362
H            4.86096737346885       -0.00142340487167        0.01026385471012
H            1.75293429464907       -2.85780465923151        0.02115788763505
