27
 energy: -50.062619104701 gnorm: 0.000887270328 xtb: 6.6.1 (8d0f1dd)
N           -4.78002248126788       -1.77840491787930       -0.05880544842570
C           -3.75261869017397       -1.26800494169373       -0.02199867149795
C           -2.47108636510288       -0.66876947193511        0.00927092839004
C           -2.47318718641123        0.70901227117821        0.00405762393753
C           -1.43512553209187        1.67202442304071        0.01365051958765
C           -1.87960336338750        3.01468376286619        0.02137871545508
N           -2.21542475837722        4.11233253482057        0.02611765527806
C           -0.04656862568490        1.48561756816560        0.00766856498041
C            0.51297691849111        0.18173803540395       -0.00736459099723
C            1.82584534377516       -0.34927682632957       -0.02475305578512
C            1.31328778338559       -1.69098678393540        0.00307670857408
C            2.35394642037112       -2.57087662170969        0.02931132743587
C            3.55424141177105       -1.77738146595540        0.00769172109924
C            3.24734958887474       -0.41982462309149       -0.02349323341768
C            4.09870835683675        0.68428849574149       -0.05006313595095
N            4.71777007383724        1.65364086273915       -0.07180779464847
H            4.54863877143991       -2.18408952327248        0.01348002361882
H            2.34503932889439       -3.64571884772943        0.06179765324054
C           -0.07604846745682       -1.12627231955864        0.01140840698516
C           -1.36116748263294       -1.58939878996816        0.02735761054113
N           -1.61211417964341       -2.93273907930183        0.11590854404325
H           -0.84429818942720       -3.55758363586887       -0.05840641183438
H           -2.53901999700866       -3.27022187094379       -0.08113485083002
N            0.80928034683477        2.52654782904799        0.01275952733353
H            0.47028494057182        3.47382844304762        0.02267204142855
H            1.80231175819895        2.36150353739832        0.00220585317090
H           -3.46362791781578        1.15408954852304       -0.00850409221268
