23
 energy: -41.582713691400 gnorm: 0.000541146781 xtb: 6.6.1 (8d0f1dd)
N           -4.89406489249161       -1.00368443152691        0.00820382208761
C           -3.77558736377183       -0.73739084242639        0.00368770240826
C           -2.40414859983839       -0.40129445927982       -0.00073504775082
C           -2.12243793176435        1.00182637205195       -0.00454523343782
C           -0.84301951508021        1.59157108892344       -0.00878529791374
C            0.30778318929897        0.86209051043503       -0.00955797750275
C            1.72640303852608        1.05328447838031       -0.00471355541310
C            1.93271919655815       -0.40238926358372       -0.00218838807128
C            3.32878318898673       -0.57441845533742        0.01817408186945
N            3.92704093617111        0.64046266688118        0.02832223877920
C            2.98689683789297        1.61218633436648        0.01432086007789
H            3.29743900844906        2.64111923798232        0.02165100146692
N            4.05379448064789       -1.70974442997154       -0.01377169714128
H            3.59973645461396       -2.58899761171322        0.15707848263765
H            5.04540337681268       -1.63156367209375        0.13196851153016
C            0.54127041759080       -0.61508893891716       -0.00456893132069
N           -0.24920028759948       -1.66263778176342        0.00175020690443
C           -1.56066871811463       -1.52266044166632        0.00124614214797
H           -2.08108917496109       -2.47743248276437        0.00430997785975
H           -0.79152240984886        2.67329518699043       -0.01005588354356
N           -3.18367685047642        1.83666590274491       -0.00248566598980
H           -4.12220736582350        1.47315743604969        0.00106153543070
H           -3.04467685217803        2.83134417733829       -0.00565610031517
