24
 energy: -41.300073236373 gnorm: 0.000784782546 xtb: 6.6.1 (8d0f1dd)
N           -4.05161993326295       -2.12440141209562       -0.04171632398001
C           -3.09487484094910       -1.48380016339252       -0.01810118127839
C           -1.93307134289185       -0.69551488040511       -0.00109196292831
C           -2.12848353003025        0.69468539041146        0.02768318444500
N           -1.25435639751770        1.72550969973820       -0.00927767329822
C            0.04619173182892        1.72421975449796       -0.00803264758918
C            0.89175084777905        0.56318695453720        0.04101087727765
C            2.25761729736154        0.26513920618796        0.06823767728287
C            1.96186246094627       -1.16438729942809        0.02680908708924
C            3.11798803531659       -1.85366939238953       -0.02259791431789
C            4.18050880358465       -0.84964916814226        0.01092604176294
C            3.66903101594845        0.41956601133913        0.06305068508571
H            4.23390013413508        1.33362067848355        0.09818924705875
H            5.22547612952884       -1.10253647401284       -0.00728375100108
H            3.29168083502660       -2.91283386781355       -0.07861155182715
C            0.50544799476511       -0.83438289644754        0.01716657375208
C           -0.69993443875636       -1.42816964529470       -0.01316078021349
H           -0.77877979978669       -2.50619150511373       -0.03889116654971
N            0.66204087188203        2.92486635057294       -0.05544828162903
H            0.10867582185447        3.76087018979486       -0.11405939775424
H            1.66386322054075        2.97466626456550       -0.08142519679526
N           -3.40632048252376        1.15850163211487        0.10618337195622
H           -4.18698115483884        0.53020672749179        0.03598456360492
H           -3.54710607594096        2.14879749310030        0.02867114224643
