23
 energy: -42.379328059217 gnorm: 0.000715021802 xtb: 6.6.1 (8d0f1dd)
N           -5.21444021854331        0.05825316416857       -0.01877784537670
C           -4.07056556152715        0.14438270895841       -0.01013711093705
C           -2.65702757663988        0.24682490370718       -0.00070132419293
C           -2.18060203404793        1.58332352407591        0.00985187284911
N           -0.96892081180156        2.09039675127134        0.01016577993072
C            0.09978711844774        1.32568830000021        0.00649817290499
C            1.50070130664375        1.51182258435719        0.00203211479919
C            1.69715850928915        0.05602533465198        0.00722841281628
C            3.07053646780850       -0.20817823333758        0.00029044862269
C            3.69613659544903        1.08026065498956       -0.00951338826829
C            2.75990274739240        2.11319735630877       -0.00868876211088
H            2.99286484668532        3.16195735303039       -0.01660873784998
H            4.76261692230918        1.21882807164025       -0.01725326296172
N            3.68973234146667       -1.40006394109978        0.00708028366247
H            4.69250759264491       -1.45554118936044       -0.01530086033444
H            3.15076592971399       -2.24914004923884        0.00089693697700
C            0.30767548131290       -0.15491225429535        0.00946564955695
C           -0.60637714486496       -1.20632247510534        0.00435508744085
C           -0.07312586929739       -2.51115790020151        0.00134859211917
N            0.44427001993538       -3.53640810208947       -0.00078867499009
C           -1.98546065136322       -0.98064720022992       -0.00233672122367
H           -2.61744164422147       -1.86246795145007       -0.00950267345881
H           -2.95731983239188        2.34328592674858        0.01670485512495
