22
 energy: -37.047175494611 gnorm: 0.000705915665 xtb: 6.6.1 (8d0f1dd)
N           -0.41616839699516       -2.70125560436433        0.06119403236983
C           -0.78215600448493       -1.39426814166385        0.01628680445467
C            0.28353107263819       -0.44123781584203        0.04208030153863
C            1.67900504368588       -0.45521243533740        0.05510214585462
C            1.73914399788217        0.99690492549815        0.02756444428621
C            3.04851032183556        1.31896783812200       -0.01348063363053
C            3.72213971462120        0.01736742466493        0.00365424879197
N            2.91902921921762       -1.02019568094702        0.04114652821351
H            4.78859152168766       -0.12372287054231       -0.01586841224622
H            3.55038251441180        2.26717233541422       -0.05179495083164
C            0.23402882775674        1.00702867622880        0.02400859144106
C           -0.80114570201531        1.86594812180039       -0.00157926429942
N           -2.11593560234668        1.53253695724528       -0.00715711733852
C           -2.64437633422850        0.34351300689964       -0.02589191497805
N           -4.01409493984773        0.36639924742146       -0.11691062578375
H           -4.43569258627001        1.27163028107433        0.00734334296639
H           -4.54888139622914       -0.43368934792814        0.17116306569698
C           -2.08983146106311       -0.99193286965458       -0.02100102393174
H           -2.83378738524224       -1.78038409804201       -0.05180608918193
H           -0.63360751826461        2.93607691513677       -0.01202756005671
H            0.56155791402186       -2.92001900896442       -0.02421453548586
H           -1.09159734177111       -3.42837307981972       -0.09293385874955
