23
 energy: -41.566168196625 gnorm: 0.000981958568 xtb: 6.6.1 (8d0f1dd)
N            4.52837292565622        1.00101894892443       -0.06834491094847
C            3.47159187570953        0.55081927713858       -0.03269642623877
C            2.16020832059409        0.03129104272024       -0.00732602087598
C            2.07479007469429       -1.34605407350072       -0.03735916342150
N            1.06601667608351       -2.22318365891897        0.03771973782126
C           -0.21626273706869       -1.97669413750122        0.00279915247616
C           -0.80800945197921       -0.67921340317210       -0.19641453030002
C           -2.09479688059052       -0.14315151786478       -0.32573594955223
C           -1.58046373869319        1.20579427529554       -0.15062263173862
C           -2.65545518615888        1.98455808723204        0.09050292725566
C           -3.78902611832649        1.06417888735316       -0.05156846130719
N           -3.45422008550320       -0.18279512121830       -0.27812772394229
H           -4.82395142734526        1.34381501493742        0.03086359723410
H           -2.74033513709247        3.02652297778363        0.33570026644739
C           -0.19233527889734        0.61995026677551       -0.11184226455993
C            1.09683414678555        1.02075055335703        0.02358913921292
N            1.42491274738646        2.34038495878447        0.22413038252643
H            2.37651798478151        2.61997451473434        0.04995656104870
H            0.71287894586994        3.01666043941035        0.00396519350445
N           -1.06440087128213       -3.00736227525955        0.15243899922955
H           -2.05582438035480       -2.85007098229505        0.09101632957003
H           -0.69837408139866       -3.93148986633794        0.30251496739444
H            3.02972499702974       -1.86300837197824       -0.09455993193603
