26
 energy: -44.739437141669 gnorm: 0.000872160242 xtb: 6.6.1 (8d0f1dd)
N           -4.04713803623920       -2.07544761558338       -0.06245994435144
C           -3.21092541166680       -1.28380212337867       -0.01712278631112
C           -2.15331084835877       -0.35836909834537        0.01664141860049
C           -2.54025402258390        1.05162981737685        0.03366502104004
N           -3.90791487305086        1.23946560597663        0.14523899687733
H           -4.51304362707126        0.47876558317045       -0.11676834738858
H           -4.25719196981637        2.16023974013415       -0.05957288021094
C           -1.75975824877760        2.17261317105469        0.00637239687422
C           -0.33623493314712        2.32425725983456       -0.00784093955074
C            0.51370945823362        1.29219726771018        0.00713296171666
C            1.98753870314969        1.01460891573079        0.00737048359102
C            1.66988786521114       -0.41248038027518        0.02974650474156
N            2.78161644933125       -1.19284437432389        0.04291292484780
C            3.76840011232738       -0.31114294910412        0.02589140467544
C            3.32634442878659        1.10647352537770        0.00214717253142
H            3.99479305819245        1.94645719266182       -0.01515728422644
N            5.06620844639130       -0.68247852265453       -0.02090160993823
H            5.77601757949088       -0.00685341622907        0.19966352796074
H            5.27175964235963       -1.65395990405019        0.13684124140908
C            0.30337291224981       -0.15010430137299        0.02818857153941
C           -0.88893818445330       -0.93030794056427        0.02242497465835
N           -0.70535886812902       -2.27009705325828        0.01441686299189
H           -1.48441670368807       -2.90489730511707        0.00472671743080
H            0.23593423643593       -2.62272485424787        0.01154938516577
H            0.04356236962510        3.33564968439629       -0.02781843454127
H           -2.30823511690238        3.10714174798165        0.01223807556677
