23
 energy: -41.594117194286 gnorm: 0.000503138677 xtb: 6.6.1 (8d0f1dd)
N           -1.39528669492695       -3.90013947676759       -0.00538373129984
C           -1.37820580781111       -2.75187568517952       -0.00585260462961
C           -1.35699818180865       -1.34351198328220       -0.00488330877295
C           -0.13896094849310       -0.65949652850263       -0.02103446666964
C            1.25000768667030       -0.87572445657321       -0.02731426298322
C            1.49498195858952        0.57865262977471        0.00087925108463
C            2.86615456556900        0.78662865916148        0.02574165815170
N            3.55893213771926        1.95773151485950        0.00293824121271
H            4.53400873091898        1.93566606454453        0.24868322366169
H            3.05496443245376        2.80156323480753        0.21494641381286
C            3.44831418618993       -0.52190790876732        0.00673324985292
C            2.48159246176617       -1.52496181361780       -0.02344277280875
H            2.67447377550601       -2.58174227582594       -0.03997513615119
H            4.51055045353986       -0.69478482340389        0.01710050509699
C            0.09560124676669        0.81212963596468        0.00235500347371
N           -0.68291338289061        1.85504338485000        0.01809070808499
C           -2.02300133251376        1.70499787133400        0.00681941479712
N           -2.83654434871969        0.64638311890583        0.02508472945689
C           -2.57013923818135       -0.64097503307063        0.02799383149809
H           -3.47338906262399       -1.24762112283146        0.05787536239686
N           -2.68619805696554        2.87399464312241       -0.01493503144425
H           -2.16698324287830        3.73350138595849       -0.03044464412909
H           -3.69059748487640        2.86461803523898       -0.02423159609259
