25
 energy: -41.017146785130 gnorm: 0.000700631041 xtb: 6.6.1 (8d0f1dd)
N            4.01955358298131        2.19331705652330        0.05054130867520
C            3.09633166303606        1.50652372330966        0.01152668002762
C            1.96332632591057        0.67351043085123       -0.01593873638396
C            2.19878241904885       -0.70396875439856       -0.03423674566862
N            3.50759227226665       -1.11072579808178       -0.11141643980973
H            4.23198204571989       -0.42382222322256        0.01580168721562
H            3.73967281981359       -2.06517441137553        0.09653315913296
C            1.26023084322306       -1.77705719568366       -0.01970730517407
C           -0.11223427675783       -1.79106281115897       -0.02778778349148
C           -0.89709944039761       -0.60156686448234       -0.03685953417574
C           -2.25886760063400       -0.27258690536060       -0.03279454709919
C           -1.93252322047189        1.14797006791337       -0.01218891673345
C           -3.07596312680904        1.86458339461509        0.01816720133484
C           -4.15576147299237        0.88697386422549        0.00912071763041
C           -3.67053159663731       -0.39622811428338       -0.02137403563608
H           -4.25726748703923       -1.29732160107131       -0.03637281990016
H           -5.19590624082351        1.16015487717040        0.02533618663594
H           -3.22437602969628        2.92894448314691        0.04556944939487
C           -0.48662968692877        0.78936511357721       -0.02044554783501
C            0.71734915682062        1.38468680272190       -0.00818778808976
H            0.78479911043779        2.46399926158441        0.00968320136496
N           -0.80124448348426       -2.96806603364953       -0.06799810712887
H           -0.32484213194187       -3.83599109898924        0.10218161503090
H           -1.79218553009504       -2.93636722613486        0.09390433550900
H            1.72743757485070       -2.75734258254664       -0.01567075352617
