20
 energy: -33.597194975693 gnorm: 0.000281794641 xtb: 6.6.1 (8d0f1dd)
N            4.02212902079643        0.03921561763629        0.00900205580321
C            2.65513968636095        0.07429206300280       -0.02797556298424
N            2.14738521819426        1.26162099716080        0.02767447395458
C            0.83464105415258        1.61453518380903       -0.01094990172209
C           -0.19995678180458        0.76722336045830        0.12659923322886
C           -1.67683453815497        0.71435335874640        0.14832761618244
C           -1.64534673028318       -0.71995675987698        0.47386676581668
C           -2.97391351552479       -1.16571831108899        0.27011722849187
C           -3.63693082335959       -0.04459537123041       -0.17086842159265
N           -2.82123422186053        1.07061814323914       -0.33843386594800
H           -4.67416364214304        0.04234819705970       -0.43763739582954
H           -3.39684134597518       -2.13169826478825        0.46578134211744
C           -0.27128249849919       -0.68703034052138        0.22900309294734
C            0.75476282072703       -1.61127245280095       -0.12397506672305
C            2.04831479697555       -1.24807143541471       -0.23006701435215
H            2.76791104914589       -2.01764724166647       -0.48320014759492
H            0.47266188547381       -2.64387765319372       -0.28726823637523
H            0.67615269634833        2.67935980419475       -0.11782601857525
H            4.50496122665397       -0.81611469081629        0.21794094719749
H            4.47990277337626        0.90595171059097        0.23492623395726
