23
 energy: -41.589512434191 gnorm: 0.000703337282 xtb: 6.6.1 (8d0f1dd)
N            4.94420628582937        0.19931027974589       -0.01580336156090
C            3.79471193253255        0.24661413214095       -0.00954231898507
C            2.38542009643291        0.27359188224563       -0.00253275805465
C            1.75817627949843       -1.02199472621190        0.00176416481804
N            0.45839270068130       -1.33354456924816        0.00008641590605
C           -0.44695230682002       -0.38688693449483        0.00581026035360
C           -1.85592589730249       -0.33077612995313        0.00397890994740
C           -1.81064514990345        1.14499448996354        0.01276067813728
C           -3.11736265365237        1.61686718922435        0.00486828129014
C           -3.94209545213950        0.48935510301558       -0.01217247313684
C           -3.19126296805641       -0.72362909695678       -0.01542416925860
N           -3.71204674313177       -1.98017086503890        0.02352071557999
H           -3.09451366172410       -2.74669925932938       -0.18248835616370
H           -4.68083309478504       -2.09819792724821       -0.22092527283055
H           -5.01807317030209        0.51825628492046       -0.02365778718690
H           -3.45657848006770        2.63617468445262        0.00866213752888
C           -0.40175157009413        1.11397249968447        0.01200454710138
N            0.58146298135565        1.98931891162538        0.00486034732654
C            1.83005490104867        1.56239330599496       -0.00144998803347
H            2.55423148315062        2.37272663238132       -0.00677826097650
N            2.56329525851013       -2.09753159484274        0.00376882213647
H            3.56508066257654       -2.00333886829798        0.00780487137305
H            2.13376958266288       -3.00646572837313        0.01106719498834
