26
 energy: -43.934481056962 gnorm: 0.000775748241 xtb: 6.6.1 (8d0f1dd)
N            4.89910146290589       -0.06271431400282       -0.06121129270729
C            3.52298601138563       -0.09464364179458       -0.03616975882526
C            2.72238798395196        1.14747139924905        0.04946938289594
C            1.44413781074384        0.76308038331205       -0.05553950452581
C            1.38452715564821       -0.69909084915226       -0.15772263823936
C            2.71075410757135       -1.19896942631518       -0.15124321098806
H            3.03851686031315       -2.21949894593024       -0.23197057476254
C           -0.00506938727936       -0.65813155186003       -0.08798494513006
C           -1.11717953847921       -1.56701003816312        0.04648728362887
N           -2.36646406377625       -1.22670477394758        0.06153150523120
C           -2.89003324079083        0.04157365008244       -0.05849662256046
N           -2.41684664387284        1.24193552248672        0.00141615232133
C           -1.10615366209686        1.63722605757338        0.07477163498247
C           -0.05756263957376        0.79260149388167       -0.02296450504551
N           -0.95247317928793        3.00448521268537        0.27387387514694
H           -1.76422547252317        3.53629402801649       -0.00057582741665
H           -0.07596288375311        3.38039861542698       -0.05331201580838
N           -4.23820604147367       -0.03834414322135       -0.28364062023433
H           -4.76676732516766        0.80790635021755       -0.16283906193165
H           -4.67966164964702       -0.91518174797010       -0.06956081415385
N           -0.81653762101168       -2.87568108346891        0.18894336694980
H           -1.55727687314966       -3.54380372246432        0.30188567165996
H            0.14147120026659       -3.17252128905942        0.17034923080893
H            3.15634288041878        2.12432275523428        0.17397869190589
H            5.36285042202729       -0.93932867695042        0.11940257861823
H            5.32995480345027        0.73318338623459        0.38206386257967
