25
 energy: -40.223955705242 gnorm: 0.000923766430 xtb: 6.6.1 (8d0f1dd)
N            4.00732964280797        1.49612138134338       -0.05643410152515
C            2.94988552185518        0.61973813853378       -0.01622561657422
C            1.66636621151648        1.19453985290140       -0.01743325933226
C            0.50331644569150        0.47996358021678       -0.02542373353503
C           -0.90407526337472        0.71357978234361       -0.01650507874799
C           -1.15545436532916       -0.72490152161139       -0.00512699229767
C           -2.54597053068373       -0.86239081448847        0.02164308168429
N           -3.12982061510066        0.36114466474661        0.01699872750812
C           -2.16192687378178        1.31482775742763       -0.00833267254308
N           -2.50231926146734        2.63534538481303        0.04347199530483
H           -3.46950994962544        2.82997261927698       -0.15953023941057
H           -1.83146562938015        3.29525687186269       -0.31306131210701
N           -3.31062169430633       -1.99013863398428       -0.01472655615669
H           -2.88780186918352       -2.84431835640199        0.30720989237220
H           -4.28246759649494       -1.85537444778861        0.21182943303502
C            0.24427140758163       -0.98471903086083       -0.02020987480674
C            1.11473685144168       -2.04189055239908       -0.03307995868515
C            2.50247322046277       -1.89127547151142       -0.04261310608472
C            3.28099155112748       -0.74766489036291       -0.03122300942039
H            4.35100389255825       -0.93096623572027       -0.03597347192741
H            3.06558164193228       -2.81779456003703       -0.05404256075759
H            0.71533936197902       -3.04823926643615       -0.03645159788232
H            1.61069288446064        2.27741764078805       -0.00923283035744
H            4.92755636685266        1.14892734776204        0.15290503690664
H            3.83427891806022        2.46153228518646        0.16477718544036
