23
 energy: -41.582444799719 gnorm: 0.000690701017 xtb: 6.6.1 (8d0f1dd)
N            0.82457483530285        3.32954359288434        0.02369962865234
C            1.01382043239041        2.19503972863344        0.00619690774318
C            1.21061188034987        0.80286953213287       -0.00817853518376
C            0.08891228320597       -0.01187457931431       -0.02209634574679
C           -1.31330501143011        0.10635992209683       -0.02080079008020
C           -1.46647702893291       -1.35864136379312        0.00395939039798
C           -2.83008747578864       -1.58817721283433        0.04164822586563
N           -3.49863895313858       -0.41848679031426        0.03749617847607
C           -2.61883563810277        0.61679466332643       -0.00145329357910
N           -3.04463744843523        1.89301421026351       -0.05505414079412
H           -4.02642259275948        2.06456418159008        0.07326511710770
H           -2.39043417570972        2.64631190470399        0.06116998309460
H           -3.38160395413858       -2.50932563129044        0.07489991833809
C           -0.04648197366474       -1.50337260794005       -0.00790280857939
N            0.80174474500801       -2.48376359875002       -0.00875663615560
C            2.11808236658208       -2.25426479911288       -0.01758822895861
C            2.87377117723822       -1.09942384666687       -0.00840977013679
C            2.52681788859360        0.27314901045069        0.00137682676814
N            3.54744934713643        1.15932588926442        0.01898854010301
H            4.50073201404176        0.84321471143150        0.02581657631175
H            3.36065869338753        2.14790352126868        0.02298613599262
H            3.94551793882378       -1.26781067975327       -0.00801838259484
H            2.68445864044786       -3.18091389117598       -0.02858074673843
