25
 energy: -45.014951431456 gnorm: 0.000883249139 xtb: 6.6.1 (8d0f1dd)
N           -4.73095121701670       -1.43950678079607       -0.13433501049739
C           -3.72940746641204       -0.87868899675798       -0.06380807944421
C           -2.48937092651761       -0.21336746907889       -0.00041873149299
C           -2.56098128030973        1.15666594797096       -0.04626966758378
N           -1.66189514510131        2.15947760772591        0.02111506526443
C           -0.36248482180109        2.06062412818086        0.01059606867921
C            0.38934397843812        0.83745362273701       -0.09929560127320
C            1.71765685253505        0.45153106222676       -0.14875843824551
C            1.35389502159757       -0.96750134389730       -0.04718694602559
C            2.50178557723868       -1.64688183350338        0.06345018379479
C            3.54404763537232       -0.58122343095153       -0.02432884167851
N            3.06621250137445        0.64239261283815       -0.13851718980808
N            4.86514966634227       -0.84819162716934       -0.02435956601057
H            5.49813391734561       -0.06924495754572        0.03000990994139
H            5.18862277169091       -1.75044211734171        0.27420819363086
H            2.71995605056141       -2.69114223380248        0.18852597667383
C           -0.08504847471321       -0.54639848639317       -0.03519838601201
C           -1.31223455147006       -1.08544535274054        0.06134410045836
N           -1.51986342208123       -2.44149864745584        0.25652333048371
H           -0.73616173138131       -3.02989777579489        0.02167583887812
H           -2.41743575271305       -2.80027509150319       -0.03088116304771
N            0.35589179384113        3.19260689062125        0.11924966791880
H            1.35935085890767        3.14908656833068        0.08148628833300
H           -0.12152644687941        4.07257311674828        0.20499853390749
H           -3.56782594924823        1.56094051865179       -0.12534258104453
