26
 energy: -45.555301886189 gnorm: 0.000971329544 xtb: 6.6.1 (8d0f1dd)
N           -5.44306497139310       -0.12767779769151       -0.01493958107074
C           -4.29179763439752       -0.14649782350554        0.00128373108852
C           -2.89933359652039       -0.10484405999141        0.00645580055301
C           -2.16228755556247        1.13861382388310       -0.01762177203729
C           -0.82811465989536        0.76661614847399       -0.01764367132218
C           -0.75112219816369       -0.69543653429777        0.00087387481166
C           -2.02804203598513       -1.21977950528041        0.01821726343184
H           -2.34183707367324       -2.24697581417148        0.03594953244626
C            0.67123562806876       -0.62462147372336       -0.00559886308962
C            1.76917573995927       -1.46855121162652       -0.00468600962880
C            1.56086112688365       -2.86366999098139        0.00224183303935
N            1.40406108605056       -4.00106027451034        0.00772327644943
C            3.09912665554026       -1.00261994405711       -0.01048463575451
C            3.59260573411229        0.27987631471179       -0.01031174677263
C            2.95264716915599        1.54443853834488       -0.00741091644655
C            1.57222220593587        1.80989955482632       -0.01595193217972
C            0.60031430707427        0.84642687145373       -0.01895797777595
H            1.26929664164353        2.84985902377871       -0.01571812703819
N            3.77729932025157        2.62054118409118       -0.01067371383038
H            3.40199999845474        3.55064613089865        0.03864355577201
H            4.77349250248937        2.50450410928019        0.04217823407153
H            4.67501591244835        0.34773483161382       -0.01059908504246
H            3.84795655595157       -1.78685882594683       -0.01178382533195
N           -2.73693046556169        2.36962169617441        0.01841463014559
H           -3.72840176769642        2.42773434802641       -0.14671259005984
H           -2.18218906777114        3.17226205582647       -0.22109091002843
