25
 energy: -41.034347790476 gnorm: 0.000803549446 xtb: 6.6.1 (8d0f1dd)
N           -0.09823990997622       -3.70368686427732        0.00770230683592
C           -0.31262016124634       -2.57259121897758        0.00344894646615
C           -0.61373827971375       -1.20066879490540       -0.00147513585329
C            0.42920257228406       -0.29205536544955       -0.00194500452152
C            1.85586704323868       -0.31044164963581        0.00148802494371
C            1.87826274895403        1.14961955344087       -0.00763094717515
C            3.19055083697273        1.56492408642861       -0.00728980043298
C            3.96503461206091        0.38160993173202        0.00143695461153
C            3.16116664843283       -0.77029486156625        0.00678984433810
H            3.51501752317827       -1.78465024006858        0.01451138080232
H            5.04127597251353        0.36839955629933        0.00386435634452
H            3.58496997317323        2.56504185958591       -0.01317776916282
C            0.43873704790116        1.16990241742690       -0.00803514975883
C           -0.57048207548337        2.08828323552191       -0.00744992710771
C           -1.93982184870567        1.75025650714250       -0.00365908676781
N           -2.80578708668268        2.79632378423328       -0.01502880822684
H           -3.79711296359736        2.64824859498993        0.04082119635674
H           -2.45938576802927        3.73694778454538        0.03554124331960
C           -2.52068111172153        0.47370304216854       -0.00398718525444
C           -1.99210483759505       -0.81660260572667       -0.00591441240465
N           -2.88277840541791       -1.83785396316401       -0.00852867383352
H           -2.55600009157798       -2.78904079168341       -0.01020281425763
H           -3.87088870856594       -1.66197118160056       -0.01489771061389
H           -3.60688705396106        0.49213988445598       -0.00445935384343
H           -0.31744001793567        3.14013615458391       -0.00953690220403
