24
 energy: -46.908489301539 gnorm: 0.000286092949 xtb: 6.6.1 (8d0f1dd)
N            6.18611438033210        0.07431881369573       -0.00023984306825
C            5.04044756223683        0.15215587038351       -0.00020621673054
C            3.64252658169691        0.24686229584427       -0.00011506377286
C            2.76716155483587       -0.87952266555277        0.00031411085951
C            1.50002160994765       -0.34916123045227        0.00039735629294
C            1.59533925007738        1.11862392514934        0.00004380244764
C            2.92555043180954        1.47492438771734       -0.00029568810866
H            3.37246745620697        2.45098272834633       -0.00061912383673
C            0.17007455614939        1.20483695819141        0.00027905179418
N           -0.70734544718650        2.17625096627984        0.00018408393667
C           -2.00496939298710        1.92777531670084        0.00049592795839
C           -2.75196781002493        0.74553605693310        0.00098210805745
C           -4.15047158686716        0.96047706938527        0.00114601191798
N           -5.28802534988109        1.11793858549189        0.00159360674538
C           -2.35969693288721       -0.63655269948155        0.00125803431224
C           -1.01961304890269       -1.11310014058770        0.00108699437939
C           -0.80648632640561       -2.50752167973631        0.00125759211021
N           -0.65851466149829       -3.64618130938684        0.00169334051623
C            0.07405469636276       -0.26397108270459        0.00067063291299
N           -3.33747338165828       -1.54967136752918        0.00167764203501
H           -3.11179140118507       -2.53263910710814        0.00186450002793
H           -4.30547501130695       -1.26677612247148        0.00181689558389
H           -2.59998545080769        2.83769966785063        0.00034009202509
H            3.08080967184334       -1.90654207045853        0.00051923480409
