24
 energy: -42.114695469276 gnorm: 0.000448014006 xtb: 6.6.1 (8d0f1dd)
N           -5.62748920790026       -0.48231850917667        0.00016346029758
C           -4.49759008369660       -0.27000557430507        0.00010754188489
C           -3.12492933315613       -0.00627900392654        0.00013437317125
C           -2.56271552426883        1.30527501348269       -0.00097692256489
C           -1.20215752713625        1.11716763951482       -0.00072826682015
C           -0.92307079371697       -0.31636502534321        0.00052038220432
C           -2.11364624077219       -1.00744204433711        0.00105039178625
H           -2.29061950636481       -2.06678734542313        0.00192807150921
C            0.48421097681208       -0.04213267300488        0.00009750425341
C            1.66548682581935       -0.76365005114493        0.00046595315120
C            1.59189294276123       -2.17027012374711        0.00174497899397
N            1.57107862442493       -3.31962209737682        0.00239392428549
C            2.96004848503010       -0.16289916177257       -0.00029963703591
C            3.25643945535948        1.21689751205579       -0.00149780492293
C            2.45246113692399        2.34103358991278       -0.00227360880868
C            1.06334961763434        2.46837361159278       -0.00214495749760
C            0.21351868543558        1.38917399240405       -0.00108476840310
H            0.64030310735455        3.46251990739682       -0.00296133889837
H            2.99719303679438        3.27785076812851       -0.00321293422598
H            4.32165293222190        1.42022370084187       -0.00186135975941
N            4.01135655643869       -1.00503120369884        0.00023341567009
H            4.95272812413157       -0.65332993939437       -0.00029876770231
H            3.86340028963722       -2.00128959136812        0.00107234340300
H           -3.13230998296737        2.21619692058923       -0.00184623767131
