24
 energy: -41.286398721554 gnorm: 0.000784372438 xtb: 6.6.1 (8d0f1dd)
N            4.02809774743859        2.20161303923014       -0.07578260510446
C            3.09774084558276        1.52485599167125       -0.04176821523574
C            1.96334212949873        0.69308851907235       -0.01801149534515
C            0.71324150451586        1.40022874757327       -0.00547172345893
C           -0.47673964647136        0.79494789450155       -0.12101398215560
C           -1.93265086310795        1.09740224826807       -0.11360610282073
C           -2.23809876967701       -0.29709379561598       -0.45213775687080
C           -3.63382011597296       -0.41658762860012       -0.25080246209356
C           -4.01638044181910        0.82941369293803        0.19129151897300
N           -2.95945874045984        1.72165133494929        0.36270472113547
H           -5.00568804576319        1.15911094881177        0.44965203104610
H           -4.27752738010107       -1.25185264501726       -0.45115738682057
C           -0.88066585382871       -0.58946951476628       -0.25857159079476
C           -0.11577728294236       -1.77313485485342       -0.02109127110647
N           -0.81154760035610       -2.94480830574282        0.01611377154316
H           -1.81243839539354       -2.89266516081276        0.09475784032977
H           -0.36081550817178       -3.78465606925721        0.33380301935340
C            1.25124589017250       -1.75449996333070        0.08072618805504
C            2.19561584796842       -0.68379500694228        0.01854970066933
N            3.50021221559792       -1.09463941022617        0.08726397446325
H            3.72799811282935       -2.05863638864418       -0.07893106487660
H            4.22932456340280       -0.41494692837910       -0.04972083876771
H            1.71421810569775       -2.72765586668490        0.21163250425314
H            0.76619391206047        2.47484408855742        0.09535474862930
