23
 energy: -41.592133989551 gnorm: 0.000701472998 xtb: 6.6.1 (8d0f1dd)
N           -0.87039482126301       -3.36458012322191        0.01856170929333
C           -1.00353704963440       -2.22146424580902       -0.00397542084718
C           -1.15045603202226       -0.82694221039990       -0.02099266686609
C           -0.03138643658111       -0.01804227466601       -0.03079499103080
C            1.37858244614543       -0.10504824471843       -0.02182830204588
C            1.48415877231835        1.36591285671774        0.00224657125242
C            2.83651456405726        1.69745769376269        0.04283369414921
C            3.53628641178947        0.49188085666363        0.03994781638065
C            2.65915706943735       -0.63995264050595        0.00180172216519
N            3.04092331735043       -1.94109205846406       -0.06182567693557
H            3.99303572717605       -2.17714181182311        0.15697821099145
H            2.34352210753260       -2.65275992809787        0.07530189639543
H            4.60865084742031        0.40490174532469        0.06573123925252
H            3.27989747411522        2.67552668740886        0.07120019635614
C            0.07853515094976        1.47083097853102       -0.01052473268131
N           -0.81868734704370        2.43401368252727       -0.00975716206608
C           -2.10637607262853        2.14871199563245       -0.02702254332898
N           -2.81768220288455        1.03825899648194       -0.01475267616557
C           -2.46083172139662       -0.24201983409925       -0.00196541666912
N           -3.51080130203416       -1.08396570581309        0.03028199300350
H           -3.38184323606648       -2.08159946517227        0.03723617422680
H           -4.43412774724855       -0.68602684815752        0.04327392033818
H           -2.73672873308888        3.03619302159816       -0.04886675706824
