21
 energy: -38.123274706353 gnorm: 0.000457220420 xtb: 6.6.1 (8d0f1dd)
N            4.43260173419889        1.49738446226813       -0.01425078729549
C            3.52409055692130        0.79471312342684       -0.00578569426926
C            2.42526223663064       -0.06686977240606        0.00152364148572
C            1.08245240657355        0.18045345306897        0.00765040509020
C            0.44023000600752       -1.11161764533296        0.00879133019835
N            1.33309035549189       -2.13677268142298        0.00635305958837
C            2.49848232477874       -1.54036442109240        0.00203801274702
H            3.41227324512133       -2.10535756354459       -0.00097509945149
C           -0.83625168936662       -0.52279303884374        0.00236761418133
C           -2.19646563092011       -0.94952696000757       -0.00797727693112
C           -3.21901638085963       -0.02243954956936       -0.00804192585416
C           -3.14929809250660        1.40192148047100       -0.00165004371820
N           -2.19170838972836        2.27002183638555        0.00263920503761
C           -0.85734849916482        2.03231383107859        0.00383869679527
C           -0.27919543677375        0.81235974271901        0.00506069956713
H           -0.25367668028340        2.93125068111150        0.00492814731779
H           -4.12808459028458        1.87755126663330       -0.00095508376222
H           -4.22540464696243       -0.42339807197136       -0.01404181541820
N           -2.41536560132748       -2.28255199265390       -0.02187910752695
H           -1.62905206292990       -2.90894481348375       -0.00437524475897
H           -3.34667411101139       -2.65681523323337       -0.01137702392194
