18
 energy: -30.165313831872 gnorm: 0.000465825551 xtb: 6.6.1 (8d0f1dd)
C           -2.99502916616293       -0.00019286329292       -0.00055103179841
C           -2.40833278945361        1.27054985892546       -0.00046127900811
N           -1.14200192065554        1.65712463567989       -0.00028984712608
C           -0.19184620511250        0.74086861128185       -0.00020109617012
C            1.22971183686631        0.73247251205521       -0.00014566181747
C            1.22973421225033       -0.73273219673018       -0.00030018468175
C            2.54603516733204       -1.16712395058137       -0.00045625967297
C            3.33414068400754       -0.00009738473644       -0.00037322908474
C            2.54600056945037        1.16690436984538       -0.00018162416335
H            2.91895202925750        2.17428378898531       -0.00009996616529
H            4.41027753645256       -0.00008150718320       -0.00046014143326
H            2.91901781790488       -2.17449183581022       -0.00060829044692
C           -0.19182475236820       -0.74117106581870       -0.00033010241696
N           -1.14195223423185       -1.65745461444352       -0.00046796748617
C           -2.40829581974790       -1.27091706042556       -0.00053470215857
H           -3.09654255127037       -2.11148392682810       -0.00062168596803
H           -3.09660510874474        2.11109580486614       -0.00054681053144
H           -4.07779787537389       -0.00020847558901       -0.00067715587034
