20
 energy: -38.416725347056 gnorm: 0.000386323935 xtb: 6.6.1 (8d0f1dd)
N            4.92563246179124        0.44388606825125        0.11732213368790
C            3.77601785174583        0.43599469815663        0.09862526821809
C            2.38030327395722        0.37106345731724        0.06893458545344
C            1.66717058753376       -0.87066937270661       -0.10895156598939
C            0.31878181126868       -0.51793987306304       -0.06087093328031
C            0.22207102060202        0.94289096345785        0.12221512774565
C            1.49903392044480        1.46613394504239        0.21335614084980
H            1.80565228000908        2.48442398081749        0.36446078482733
C           -1.18922755698986        0.86781174500409        0.08665405981260
N           -2.20800871551835        1.68879942066207       -0.04090381561332
C           -3.38438770619114        1.12269578977354       -0.28996585175251
N           -3.82261117132624       -0.07670148054433        0.00529360287164
C           -3.22400312348411       -1.20116982787219        0.29836643019184
N           -1.97527500278423       -1.59742520829410        0.05832818203580
C           -1.08380629279975       -0.63535108262619       -0.04880911130519
H           -3.86557784561865       -1.96090236415993        0.73668361575723
H           -4.12400953137718        1.78240889767591       -0.73434136082436
N            2.23494624081757       -2.07465807740045       -0.29523995484936
H            3.23580142327875       -2.16833276981861       -0.26756005220405
H            1.66134247344158       -2.89705512607323       -0.34689905793245
