24
 energy: -41.298947326763 gnorm: 0.000850889151 xtb: 6.6.1 (8d0f1dd)
N           -1.82672778630417       -3.31029898802914       -0.03722774367033
C           -1.85337284150272       -2.16105470532623       -0.01955044574591
C           -1.81073177038062       -0.75500718995179       -0.00433894655553
C           -3.00484418235846       -0.00656441994728       -0.04485765434391
N           -3.22942647679160        1.28539863975543       -0.00759403977445
C           -2.38550882327393        2.30813920024193        0.03886772193205
C           -0.99611046390271        2.39601917172688        0.01593571410118
C           -0.17749463433670        1.28636440402172        0.00759994942463
C            1.18418512382415        0.90731382824483        0.01352139751863
C            0.80313401048266       -0.50615516428686        0.03185286257780
C            1.96996791481542       -1.28679069181749        0.03476829434858
C            3.04437206614387       -0.36525374335597        0.01433273530599
C            2.58819989605933        0.97201953218623        0.00165191010847
N            3.37404892235334        2.07808788972562        0.02989481544728
H            4.35744575339081        1.97690322404217       -0.15068066854245
H            2.95736549129638        2.97155279887724       -0.16252669551388
H            4.08219893675889       -0.64734461103132        0.01008756277557
N            2.05614561037326       -2.63211963740829        0.08173437989714
H            2.94514035904224       -3.08621022708378       -0.02640796665268
H            1.21873492287485       -3.18209433013125       -0.00182939975291
C           -0.55631142165970       -0.15789026696739        0.02148165992219
H           -0.55122427954524        3.38288254063463        0.02477669773683
H           -2.91926774978818        3.25525172004863        0.09037795078065
H           -3.92249088647159       -0.58854368036838       -0.10834045762484
