20
 energy: -34.407304331664 gnorm: 0.000803166729 xtb: 6.6.1 (8d0f1dd)
N           -1.24770733028149       -3.45561064273138       -0.00175880875911
C           -1.27684568738109       -2.30890397195571        0.00140418293855
C           -1.31535429590814       -0.89609320250962        0.00055876387300
C           -0.11514093212562       -0.20001833044252        0.00084051149015
C            1.29686339426912       -0.47491157782510        0.00094177664235
C            1.57047440734158        0.95953113474285        0.00150748610617
C            2.95413000734052        1.07315781815870        0.00173127758024
N            3.50393409851654       -0.15433069908166        0.00128416818124
C            2.53191131418923       -1.09544077046957        0.00077013881116
H            2.79292007541936       -2.13694132669847        0.00034883891832
H            3.58519467510094        1.94233671115737        0.00219942668681
C            0.15989322912616        1.22892911191801        0.00147221499298
C           -0.68855657748586        2.32298863771471        0.00194171505272
C           -2.06863018819475        2.21895115553205        0.00184431876214
C           -2.88720137188122        1.08070900162527        0.00130467024518
C           -2.57396809989804       -0.26611511370628        0.00076918826869
H           -3.41866476746332       -0.94600382275248        0.00060884383189
H           -3.94881653319266        1.29473597412829        0.00145212589653
H           -2.60686940528065        3.15937930139983        0.00229691524972
H           -0.24544883321054        3.30953943589568        0.00246003763123
