26
 energy: -49.538042769670 gnorm: 0.000853096402 xtb: 6.6.1 (8d0f1dd)
N           -4.30614680352800       -2.59436960819291        0.22214476457225
C           -3.77786676534976       -1.57945776422197        0.10967791160547
C           -3.10034224849997       -0.36801043369194       -0.01584535856412
C           -1.76379739480036       -0.11255103306012       -0.12849415209593
C           -1.63000715953731        1.31382987164004       -0.16246123450737
N           -2.82997565779614        1.95155111252080       -0.10931405817860
C           -3.70498607480450        0.98086963970384       -0.03597652164942
H           -4.75929409467799        1.17864948927884        0.00846668925899
C           -0.21467979114827        1.20958035776008       -0.10320023978179
C            0.91088363145374        2.08983881262087        0.01374901230184
N            2.16036093519924        1.71671178040761        0.03263790506671
C            2.69508463618810        0.48118788806657       -0.02043051177543
N            4.04933843748168        0.55350726089577       -0.05381685167921
H            4.46980123342646        1.46290766633717        0.00492500094012
H            4.62030118096702       -0.27292441302649       -0.04469779532793
C            2.11470284549383       -0.80340769621952       -0.02606686248112
C            3.01629667908776       -1.87882414163761        0.01659069570435
N            3.74737847033040       -2.76690473630657        0.07467521885324
C            0.72155351189013       -1.17160176512372       -0.06345107711058
C           -0.24852863703885       -0.21223545927615       -0.10761139658772
N            0.38932800877053       -2.49559304114296       -0.11410507266607
H           -0.57551359395622       -2.74534013725093        0.01796283463726
H            1.08572229578769       -3.18734122347903        0.10348809627527
N            0.63986682771655        3.40194584626258        0.10746857808083
H           -0.31688236005073        3.71130939917286        0.08361705014639
H            1.39066752479512        4.06385584696315        0.19474877376300
