30
 energy: -52.420556766695 gnorm: 0.000390386284 xtb: 6.6.1 (8d0f1dd)
N           -3.37945223685920       -3.08346041340120       -0.00853899905144
C           -3.11288204608438       -1.96179848139917       -0.01714141895040
C           -2.73262109890139       -0.62686666228939       -0.01026080890828
C           -1.39991202571432       -0.11957868318968       -0.01732915809343
C           -1.46569149559686        1.32805849521787        0.01638687307311
C           -2.75412736315238        1.72600849672293        0.04737996180383
C           -3.55823507841840        0.50302704634957        0.02799104391498
N           -4.91954402017964        0.50626779033462       -0.01961677076215
H           -5.39328360916681       -0.36750647972327        0.14077592766684
H           -5.40226870924991        1.33978912912231        0.26958111698404
H           -3.18180633093592        2.71270680265175        0.08134956871282
C            0.04201377383503        1.36002158344138        0.01452828539591
C            1.05510159852467        2.25435701389206        0.03506364289099
N            0.80206430194331        3.61650465486357        0.15496810043992
H           -0.14331648556383        3.88351119768457       -0.07255789189691
H            1.50091145182790        4.22742550579472       -0.23838580397991
C            2.42756201896432        1.84464099279263        0.01013021735230
C            3.00317482853773        0.60438113210823       -0.02392450418829
N            4.38069938164891        0.56319209025861       -0.13994088608501
H            4.88372280868924        1.40661234098071        0.07695575617959
H            4.85122583740746       -0.29479209006511        0.09608467976921
C            2.38209858987280       -0.71257598448810       -0.01161916105429
C            3.26999042695874       -1.80454351472976        0.00980839209446
N            3.96865281166957       -2.71962841122811        0.04521181359718
C            1.03666516937174       -1.06109166300942       -0.00966676961006
C            0.00046235595515       -0.08387964998931       -0.00985508697202
N            0.63661017669388       -2.35211386307177       -0.00235599313648
H           -0.34568999035597       -2.56771312540115       -0.00332610243144
H            1.30475170941334       -3.10334991792429       -0.00473830506124
H            3.12927727336560        2.67139333369320        0.01039027450534
