19
 energy: -33.879851934223 gnorm: 0.000548370949 xtb: 6.6.1 (8d0f1dd)
N           -0.89313706108915       -2.46690003783747       -0.19788466449664
C           -1.19053012877944       -1.17208192998553        0.02497675609436
N           -2.42637377186633       -0.78641595665517       -0.06037579551424
C           -2.92474084028194        0.46643149986166        0.03057609239062
C           -2.35614438380775        1.70787099000142       -0.01387099589391
C           -0.96786249461289        2.04969091872158       -0.04870203109865
C           -0.02077225192732        1.12495301602838        0.17400814991853
C            1.44454691309026        0.90384198869985        0.17648268702865
C            1.26641141666832       -0.46216249625686        0.68624462743471
N            2.41548772871402       -1.14949161857228        0.48790656757994
C            3.17213458457436       -0.25911306674858       -0.11722534125653
N            2.59655481506550        0.96210220934839       -0.42304327078491
H            4.17931290312979       -0.47325105969826       -0.42024686581260
C           -0.09337187975427       -0.30500548915106        0.39810187181240
H           -0.69529807499432        3.07739795441432       -0.23680486924560
H           -3.04277845637503        2.54291133387141       -0.04460562118827
H           -4.00946386115063        0.43444827755589        0.07354846815474
H            0.04652815654750       -2.79786313955252       -0.06392762560301
H           -1.62912063155067       -3.10554505934520       -0.44216014951951
