26
 energy: -50.347575533404 gnorm: 0.000733330720 xtb: 6.6.1 (8d0f1dd)
N            4.77786192976430        2.09679225324510        0.00149146000404
C            3.83569837388623        1.43672007154939        0.00070694781721
C            2.69276655133504        0.61670977523192        0.00029425949497
C            1.44868625613149        1.30800257692889        0.00022437916576
C            0.25799947674207        0.67068817435256        0.00009062004571
C           -1.21822688469026        0.95778925359389        0.00011783469044
C           -1.46703703964598       -0.45578657231058        0.00022744694398
C           -2.87770394756381       -0.66532119378798       -0.00003430488093
C           -3.49438582447095       -1.91888345101812        0.00117569430014
N           -3.90863811875857       -2.99100939245318       -0.00046078331681
C           -3.44984748861351        0.59656656488686       -0.00054475569973
C           -2.41671691782805        1.62266119374215       -0.00044259114813
C           -2.66579578659345        3.00072518319987        0.00021740536117
N           -2.86512417337201        4.13117355555595       -0.00297571633245
H           -4.50240001055494        0.81090253003475       -0.00047174520356
C           -0.07865693338725       -0.72700780355344       -0.00004405647140
C            0.78324369767087       -1.86992157122999       -0.00076148146496
N            2.08941946039672       -1.82725560713752       -0.00074646741245
C            2.93151586828095       -0.78013412246557       -0.00010631139734
N            4.22098467436810       -1.19331031474162        0.00007433072100
H            4.98222098369254       -0.53742295216707        0.00038874873865
H            4.39942595795606       -2.18123573223723       -0.00034567376538
N            0.20345408030935       -3.08322227052017       -0.00155016587007
H           -0.79795351597026       -3.17745313657731       -0.00140539798934
H            0.78266519578006       -3.90456980742818       -0.00204407317351
H            1.48714632383527        2.38836721180658        0.00035657834292
