26
 energy: -44.761649718937 gnorm: 0.000603715410 xtb: 6.6.1 (8d0f1dd)
N           -0.43368268837540       -3.54231189536762       -0.03722599366791
C            0.04245415669710       -2.49358440826347       -0.01112955800555
C            0.61373613979084       -1.21442127591041        0.00581120116429
C           -0.22379331217715       -0.11254343554224        0.01369295988154
C           -1.60696114218893        0.17241763407822        0.01552075574218
C           -1.31809661904271        1.61401045772861       -0.01875956041893
C           -2.52067082678660        2.29042862398917       -0.05447406620018
C           -3.52840267813942        1.30712902203717       -0.03739033980091
C           -2.98816260274129       -0.00361793943326        0.00637803265674
N           -3.69459593890187       -1.17268684249655        0.10754893843087
H           -3.19314428221902       -2.02238818599745       -0.09457614423441
H           -4.65803762589071       -1.15287068595252       -0.18285946185464
H           -4.58384789490384        1.51763268651588       -0.05694351914559
H           -2.69580308242182        3.35100573763596       -0.09095976058904
C            0.08155415032919        1.33127515466146       -0.01152624508564
C            1.28734548791844        1.97852544907218       -0.01967840389749
C            2.51910267893210        1.29430608399427       -0.00036357488835
N            2.80348849501535       -0.00882393840833        0.00467128054845
C            2.04088253405149       -1.08427749330887       -0.00404670689659
N            2.74875524579759       -2.23726637165627       -0.01309981881803
H            3.75109180790909       -2.18364899545480       -0.03327268838520
H            2.28463555608514       -3.12852796258747       -0.03007940660558
N            3.64572260233899        2.05283135052341       -0.01461356914764
H            3.59827706765197        3.04927717731776        0.09244464935890
H            4.52991023763162        1.58493067823898        0.07361438595327
H            1.31215414763943        3.05958681948607       -0.03603062189449
