20
 energy: -33.611609439020 gnorm: 0.000668952258 xtb: 6.6.1 (8d0f1dd)
N            3.14045567487094        1.67799608148643        0.34721823375287
C            2.43323012850966        0.53256079252824        0.13307745957695
C            1.05002485588011        0.34013512287214        0.15639434000931
C            0.78573187018422       -1.08965826657495       -0.03987516162077
C            2.00328487558275       -1.73924819537757       -0.20587310188987
C            2.99207348543904       -0.75741266297008       -0.08786009980488
H            4.05000825599726       -0.94014282722374       -0.16105860197036
H            2.18180977364011       -2.78273511144029       -0.38934688647383
C           -0.60700801818204       -0.84867127796421        0.00759121105433
N           -1.70779021126699       -1.56025202365180        0.04358692458788
C           -2.86378091204020       -0.92941896210681        0.21997909837096
N           -3.23367559958143        0.29536923138664       -0.05245274164177
C           -2.55122490047169        1.40164759485811       -0.26371013134879
C           -1.21723587087221        1.67599551504020        0.03339486788008
C           -0.33774212724781        0.61739367474949        0.16716423757484
H           -0.85912866351203        2.69625587204762        0.00174483155440
H           -3.15784437536510        2.20565700691822       -0.67325306070705
H           -3.67180596353630       -1.57083475182355        0.56416272469787
H            2.65642307929807        2.55509571955478        0.25876600787887
H            4.11593731807328        1.67666509399126        0.10138406131924
