24
 energy: -46.103449565167 gnorm: 0.000952862695 xtb: 6.6.1 (8d0f1dd)
N            5.03607935432544        0.63762797704371       -0.01666185522275
C            3.88752169969357        0.61704512074427       -0.01115563484783
C            2.47311656763267        0.57588080877491       -0.00564990129378
C            1.91677742135961       -0.74424457997415        0.00291740640066
N            2.77852501320153       -1.77913799604282        0.01204991463367
H            3.77262811234375       -1.61919476007648        0.01143275462294
H            2.43314214371879       -2.72470700645818        0.01584909833281
C            0.53256975316247       -1.04933991814137        0.00139344636219
C            0.11271386566755       -2.39357184613166        0.01046277888267
N           -0.26600872973393       -3.47864352246789        0.01809114949351
C           -0.44986491999565       -0.07313436073092       -0.00423160066089
C           -1.85395338910800        0.01911951405867       -0.00122199366402
C           -1.78188801242911        1.49523299626685        0.00892358241776
C           -3.10084202620600        1.92798755128619        0.02741350601117
N           -3.93331242887561        0.87645753754326        0.02507307133507
C           -3.21927631964034       -0.28711958644341        0.00750574632373
N           -3.83721401473327       -1.47757645155784       -0.01444694870316
H           -3.30995035005977       -2.33101290255048        0.02710971288920
H           -4.84021641787317       -1.49730661251879        0.03676003879025
H           -3.50569470026037        2.92297872678827        0.04107360241202
C           -0.36418834389622        1.42333986081542        0.00140084250961
N            0.62964677581465        2.26490994214276       -0.00226609577322
C            1.88635955669712        1.84712093841088       -0.00962728952171
H            2.59437271589430        2.67120189561877       -0.01852956143012
