27
 energy: -49.287597710395 gnorm: 0.000746527475 xtb: 6.6.1 (8d0f1dd)
N            2.07119711524696        3.41213017407358       -0.04801629956077
C            1.22037744142098        2.63704056056865       -0.01743967377249
C            0.19213156220209        1.68351809989123        0.00639172550392
C            0.53465669685899        0.34349975410156        0.01805752807786
C            1.70158928822369       -0.45374967758740        0.01558786371872
C            0.86909687092152       -1.67438675556811        0.00005876587547
C            1.71315323613069       -2.76901941975928       -0.03174112402789
C            3.01998201692871       -2.25616031773586       -0.03177195831918
C            3.03803501948485       -0.83213179898007       -0.00309737226550
N            4.14682164668838       -0.04039856747012        0.07157288041276
H            4.02816261626686        0.94174609381055       -0.11466662729041
H            5.02864715240987       -0.44326897276823       -0.19675410488930
H            3.91028747107895       -2.86022237272847       -0.05320241953079
H            1.45442968773512       -3.81173025918388       -0.05388349675080
C           -0.30044994287991       -0.87292041492419        0.00769518165065
C           -1.67871058820100       -1.00925781678598        0.00231703768952
C           -2.25204478108028       -2.29128534654104       -0.01157691986596
N           -2.75778278805780       -3.32448922090910       -0.02468393979943
C           -2.55569171819908        0.12034463158008        0.01483434168581
N           -2.29149648367285        1.41962601168041        0.01244583398055
C           -1.17126591788752        2.11946396157273        0.00224113396895
N           -1.37982032138309        3.45317875652126       -0.01388951347803
H           -0.60781232697373        4.09724342815247       -0.01684426917278
H           -2.32573009564109        3.79087167767376       -0.01441425802114
N           -3.88047743951221       -0.13941102365365        0.02805331465364
H           -4.52019439021752        0.63486148413560        0.03338148006016
H           -4.22124459469185       -1.08548327566676        0.02736246996634
