27
 energy: -50.070826180410 gnorm: 0.000394102957 xtb: 6.6.1 (8d0f1dd)
N           -4.65385642823475       -2.84905080065795       -0.00444632802883
C           -3.76222038210488       -2.12654738586409       -0.00380665321089
C           -2.64879457688017       -1.25430987954782       -0.00236781134314
C           -2.93480519094814        0.08226589455264       -0.00435135611576
C           -2.09919146990837        1.24620083768352       -0.00350990766967
C           -2.80595956491271        2.46772683314342       -0.00478718559134
N           -3.36201307616520        3.47345231983421       -0.00589883260863
C           -0.70928344581481        1.34440296032248       -0.00154272174149
C            0.11639142106892        0.18047871457816        0.00067727972890
C            1.48677592140317       -0.06999575443252        0.00418060541989
C            1.25545110732884       -1.51144497525165        0.00796332007183
C            2.43557874200149       -2.16206237053228        0.01791501232894
C            3.46913135554953       -1.12448098618030        0.02013983478103
C            2.88744817755314        0.15524500995314        0.01170154369447
C            3.53608514356867        1.38525858006720        0.01548512943304
N            4.03125868366788        2.42483279002423        0.02129135460208
N            4.78807798070213       -1.39442753525111        0.01061604487006
H            5.11402263964101       -2.34100135906786        0.08294249653799
H            5.45490388483888       -0.64416955711568        0.06122746320539
H            2.65080632745375       -3.21471237583580        0.02351901966337
C           -0.21176894914204       -1.24537581250115        0.00281474444505
C           -1.36408462616911       -1.92194017289752        0.00167597982585
H           -1.37190995323911       -3.00221841655134        0.00396579227984
N           -0.08163188287983        2.53774656869465       -0.00107082632688
H           -0.60917443738325        3.39464741891075       -0.00308419413025
H            0.92346264175370        2.58003485522541       -0.00057613008682
H           -3.99237478884876        0.32794497149732       -0.00684316743400
