21
 energy: -38.933462341396 gnorm: 0.000463413117 xtb: 6.6.1 (8d0f1dd)
N            5.35304934862718        0.19942650446035       -0.00050573723945
C            4.21175425374798        0.07166599401341       -0.00148383594960
C            2.82005798510907       -0.08915879664768       -0.00044034592839
C            2.16406797530950       -1.36512711870722       -0.00023184020549
C            0.82283143309145       -1.08334652403662        0.00014719679903
C            0.64305368564542        0.37084240799264        0.00039177892733
C            1.89096205903000        0.97557541238116        0.00002887430935
H            2.13928056979731        2.02034992967108       -0.00004241764944
C           -0.76530764920040        0.21012157524004        0.00062786422376
C           -1.93575020378705        0.98843812019671        0.00100272444271
C           -1.81787108064376        2.39608528052802        0.00141048672566
N           -1.71175208400392        3.53809849113411        0.00085518779772
C           -3.19946664296655        0.40587642996409        0.00127024335043
C           -3.54252800002301       -0.95228516916707        0.00122202187353
C           -2.74756316892272       -2.09270446945566        0.00088009510589
N           -1.42615884416887       -2.26510575410413        0.00052870844293
C           -0.61012432617362       -1.24936678284017        0.00045000569762
H           -3.27727091173135       -3.04071788795998        0.00089478267131
H           -4.60719696139347       -1.14761452087576        0.00151162696506
H           -4.03299962275292        1.09947226318728        0.00162875948243
H            2.66860645260972       -2.31305910287460       -0.00052738224240
