27
 energy: -44.453838253834 gnorm: 0.000874586661 xtb: 6.6.1 (8d0f1dd)
N            4.10730729735001        2.00336341386793       -0.14634165978368
C            3.25036045126319        1.23780635694903       -0.05613500337370
C            2.17014540200833        0.34031404671027        0.01701029155914
C            0.92171431834068        0.94519393999297        0.03941539791916
C           -0.29523708741790        0.20385860685541        0.05331792555060
C           -1.66008786804810        0.51082982787206        0.05673247830113
C           -1.99158860743805       -0.91535767404222        0.00359263684173
C           -3.32627491871514       -1.06031080299356       -0.03164848373051
C           -3.87440208101123        0.30519753010413        0.01682440502954
C           -2.86194151458230        1.24605900941075        0.06782160901751
H           -2.99746605683755        2.31132399282161        0.10992881008094
N           -5.22155459533647        0.54786070441458       -0.05926394563821
H           -5.83285359180826       -0.20904754519798        0.19988411839893
H           -5.53457386404495        1.46399302254449        0.21830391236861
H           -3.93456107570826       -1.94534227989552       -0.08406011590661
C           -0.53318497834881       -1.23038297715441        0.00901410507673
C            0.29250982549708       -2.28601388519804       -0.01210959723134
C            1.71730305233890       -2.17597057364149        0.01817039818120
C            2.52660018879283       -1.07575474804730        0.04845517701640
N            3.89036319003040       -1.29721843590952        0.17516816006260
H            4.51458413860081       -0.55424105992709       -0.09285656064269
H            4.21564333655853       -2.22601465163743       -0.03487977702354
H            2.24051414383340       -3.12502981601897        0.03192432016842
H           -0.11685995154422       -3.28556199499396       -0.04677149975608
N            0.79188608110479        2.29651854054158        0.06138323623131
H           -0.12666320129413        2.68861888867114       -0.04356034187417
H            1.59563642841656        2.89129143120130       -0.04551163684329
