24
 energy: -41.309316977208 gnorm: 0.000760192001 xtb: 6.6.1 (8d0f1dd)
N            5.28342845726798        0.08204915773477       -0.00388603350216
C            4.13705657737726        0.19133827178398        0.00999816218496
C            2.74580975399481        0.26541047358969        0.01086137011423
C            1.90703282840665       -0.90652072442046       -0.02156456636993
C            0.60698855020924       -0.42057119637758       -0.02513552200792
C            0.65470910731044        1.04221181645720       -0.00161075326808
C            1.97232584632291        1.45197306702819        0.02463397042847
H            2.37688164343818        2.44677712712468        0.04935601581943
C           -0.76986725437903        1.09286151979022       -0.01226412062801
N           -1.67375736435123        2.03032527994700       -0.01434034605880
C           -2.97264556427488        1.72828878903459       -0.02217823663866
C           -3.65847355131163        0.53077605074320       -0.01230279936267
C           -3.21204830494487       -0.81535940653540       -0.00482177749299
C           -1.87875608142589       -1.26158794847190       -0.01898792400978
C           -0.81686988067179       -0.39709676720636       -0.02859353846292
H           -1.70369711057571       -2.33059236672558       -0.01432595726739
N           -4.17965865886895       -1.76330256056237        0.00117952522821
H           -5.14869286224708       -1.50584839033715        0.05830219154255
H           -3.93910572740751       -2.73681390185871        0.05234313623941
H           -4.73835527219293        0.63135822327473       -0.00965970757001
H           -3.59227833341233        2.62075477827581       -0.03185129375819
N            2.36909283346250       -2.18605366325256        0.01332420756281
H            3.35082635722689       -2.33031060435509       -0.15776003553104
H            1.74503748254698       -2.93038112168091       -0.24361410239145
