23
 energy: -37.588326166178 gnorm: 0.000818694598 xtb: 6.6.1 (8d0f1dd)
N            4.95752533918751        0.44259216597361        0.00716721498717
C            3.80566877445352        0.43887559764660       -0.00819885616596
C            2.41539410216673        0.37767609650273       -0.01763219099230
C            1.68880008025231       -0.87669517776055       -0.01802256222830
C            0.34845036419339       -0.51809034598897       -0.01428865044147
C            0.25257708957484        0.93357715165171       -0.00978598657394
C            1.52733130469801        1.47500432059724       -0.01216501075797
H            1.82991168036004        2.50651976105109       -0.00979638161010
C           -1.17432344608199        0.84808302942454       -0.00297187102258
C           -2.27138731082914        1.68428784544616        0.00886813260049
C           -3.58267016419361        1.23017744016620        0.01226681197999
C           -4.07638453723588       -0.07696494509005        0.00337775768335
C           -3.42227126397988       -1.30241761660914       -0.00931468408294
C           -2.05668915911574       -1.58722249131779       -0.01527758966995
C           -1.08081897516414       -0.61966154562338       -0.01081007473438
H           -1.75664863874785       -2.62712666298483       -0.02466786719274
H           -4.07404711705130       -2.16846723291694       -0.01464093975603
H           -5.15784412634566       -0.14477850645577        0.00676971109774
H           -4.34338634545656        2.00200682274433        0.02202997188032
H           -2.09947886658756        2.75260428956100        0.01503527047203
N            2.27456693740031       -2.09447237703771       -0.06061639290077
H            1.72218851019664       -2.91965936718592        0.08883811203500
H            3.27164136850581       -2.15691440219437        0.05869398259337
