25
 energy: -46.627210220739 gnorm: 0.000092874873 xtb: 6.6.1 (8d0f1dd)
N           -5.76881683266008       -0.85995448378271        0.00031998309022
C           -4.63003224330607       -0.72491076184940        0.00019713478126
C           -3.21987130596946       -0.56690883360829        0.00016385362698
C           -2.50623107197494       -1.77956520341319        0.00023684252613
C           -1.13985886429794       -2.00309676799122        0.00022292433505
C           -0.19976362404124       -0.99160303479537        0.00010894646317
C            1.21644273801119       -0.83693195918990        0.00008631376728
C            1.06218183435316        0.62033925904218       -0.00019388277624
C            2.31419045462378        1.21222882745658       -0.00032982027239
C            3.24314496435796        0.15087689515633       -0.00022690581572
C            4.63378940720138        0.26443127662109       -0.00036142396153
N            5.78362536584448        0.29828514517804       -0.00018933007731
C            2.57524978970300       -1.13640345034685        0.00008157573809
N            3.21102324428054       -2.32014169602319        0.00021654677473
H            4.21656220929542       -2.34504171214958        0.00044853344734
H            2.69751469523346       -3.18245807912320        0.00072953026876
H            2.56932027909660        2.25583638779216       -0.00055829884029
C           -0.35012943105481        0.47448080290177       -0.00008531014806
C           -1.49094070404713        1.27417505676060       -0.00010652052021
C           -1.31887646719724        2.67859820779602       -0.00022561001755
N           -1.17130070411629        3.81559195712773       -0.00061478176655
C           -2.79078965544405        0.76681434438535        0.00002112697935
H           -3.58437024027691        1.50656908956843       -0.00000990019243
H           -0.79433967207036       -3.02811047370273        0.00031831911341
H           -3.13347452764451       -2.66400109341065        0.00033532287649
