20
 energy: -29.617015471648 gnorm: 0.000632934126 xtb: 6.6.1 (8d0f1dd)
C           -3.11987987402082       -0.00026094207987        0.00182488197710
C           -2.53985679373102        1.26818208263849        0.00171398035949
C           -1.20196554311589        1.63815763363312        0.00138975054977
C           -0.16068896387140        0.72618557189070        0.00110894814912
C            1.27616113560370        0.72504243865781        0.00071042191406
C            1.27618095404490       -0.72541845349724        0.00066724342132
C            2.59052229320294       -1.16487759454712        0.00022324276602
C            3.38299374841699       -0.00016143076096        0.00005305505015
C            2.59048247614003        1.16453847982268        0.00029269399012
H            2.96410706055136        2.17280240473355        0.00021140783528
H            4.45883785931796       -0.00014277908239       -0.00027658904665
H            2.96417241891165       -2.17313190554179        0.00008211477841
C           -0.16065975697589       -0.72660547964018        0.00106548454042
C           -1.20191207524056       -1.63861771518733        0.00129081268371
C           -2.53980837061802       -1.26869111023444        0.00163698152706
H           -3.24784603916319       -2.08985312475989        0.00178275101324
H           -0.95982111154536       -2.69265593277307        0.00118526726691
H           -0.95991529488413        2.69220501345188        0.00134777421834
H           -3.24791986185433        2.08932215680390        0.00190983224946
H           -4.20314700516892       -0.00028274492782        0.00209629145669
