30
 energy: -58.047503665971 gnorm: 0.000716021015 xtb: 6.6.1 (8d0f1dd)
N            0.23385333158411        4.26462127410554        0.00801159565912
C            0.66819333560199        3.20190166434363        0.00568023800337
C            1.11523439153167        1.86353515990422        0.00269919912423
C            0.13260940000102        0.88067188892159        0.00093971498857
C           -1.26655197039915        0.76208953263137        0.00030009967265
C           -1.14908683532754       -0.71159261785841        0.00310728881508
C           -2.42637270952409       -1.26438318623820        0.00447616620753
N           -2.79267357221188       -2.55719423826114        0.02086802709890
H           -3.76566647830227       -2.80749203986897       -0.01097895252067
H           -2.09465707902725       -3.27974182925816       -0.00885417925405
C           -3.32670905054956       -0.14042105583814        0.00089988206476
C           -4.71383986765891       -0.25574001222272       -0.00088035156312
N           -5.86114281592602       -0.35421794706425       -0.00242017764056
C           -2.62093399897054        1.10674445055234       -0.00188844117102
N           -3.17691343712489        2.32962770142562       -0.01472242966610
H           -2.59416972407063        3.14831772634727        0.00507943822467
H           -4.17655529637955        2.43238970521640        0.00553235301555
C            0.25649734072405       -0.60284903274207        0.00190671862414
C            1.35883195166966       -1.43968574277170       -0.00136907002059
C            1.08029681646793       -2.82092356527076       -0.00635189375011
N            0.80192091040560       -3.93621000273284       -0.01179059263307
C            2.70743195360179       -0.99972607055209       -0.00201293468141
C            3.15490781583377        0.35640129320483        0.00089993318939
C            4.56298041814900        0.50708269274017       -0.00030917243563
N            5.70511405366616        0.63068005637370        0.00346308274911
C            2.48194014352858        1.58009706307596        0.00313653603314
H            3.13427883727312        2.44718308061445        0.00502933794600
N            3.65802279067751       -1.96095827707563       -0.00552554461749
H            4.63432028957077       -1.71748183197676       -0.00579450267412
H            3.39391471168548       -2.93170825922490       -0.00705269308848
