22
 energy: -37.084615423908 gnorm: 0.000676595255 xtb: 6.6.1 (8d0f1dd)
N            2.95258923158493        2.15348794723325       -0.01879824985179
C            1.97977817773641        1.21485416864103       -0.00287463554508
N            2.47035151987956       -0.02207438782930       -0.00299101254441
C            1.85438700779969       -1.19986665682513        0.00314080636926
N            0.56648666323549       -1.58283329260620       -0.01070988783187
C           -0.38811375265951       -0.69039467593660       -0.00546169689543
C           -1.80989634730325       -0.71104905852511       -0.00975902159124
C           -1.83364864347090        0.75179857389792        0.01414181017312
C           -3.14580901898707        1.16716288438916        0.01738530337782
C           -3.91968634628900       -0.01598436195870       -0.00606463336868
C           -3.11834174959349       -1.16730373988990       -0.02462906276349
H           -3.47619719503176       -2.18013553348305       -0.04496575391643
H           -4.99648205708373       -0.02734704186707       -0.01035314373667
H           -3.53992099088057        2.16728188081214        0.03436148718224
C           -0.39996351795754        0.78699954519500        0.01534686655618
C            0.64007706203259        1.67168955851544        0.01663966615502
H            0.46003231348518        2.73816206753927        0.02424362622412
N            2.70560520766103       -2.24312661420218        0.02111839931632
H            2.32745996984612       -3.17318292368066        0.01742317573630
H            3.69526721108078       -2.07705305624703        0.02444742232583
H            3.90946686112095        1.84931524867071       -0.04110495867421
H            2.73486559869402        3.13264491605701       -0.03164101599689
