21
 energy: -37.339695066086 gnorm: 0.000555369734 xtb: 6.6.1 (8d0f1dd)
N            3.51564630428138        1.70892972408307        0.27903900796827
C            2.53628961188768        0.82080454961706        0.00259489841888
N            2.99897385941626       -0.42580185110697       -0.14650735500463
C            2.37869436332298       -1.57146488751487       -0.24063094762310
N            1.11972650223432       -1.95402684419811       -0.05094485019661
C            0.17040233798875       -1.05771249222745       -0.00635467978160
C           -1.24314136001472       -1.04861319183674        0.09316028355347
C           -1.25708186394291        0.40922250876134       -0.09884364180650
C           -2.59693799558711        0.77562188875023       -0.04017560476510
N           -3.35917143661738       -0.33758688680000        0.18385885157637
C           -2.57251128925589       -1.41632193031090        0.27227769787956
H           -3.00900266198640       -2.38072916544029        0.45456793347892
N           -3.18930494566172        1.99747605402569       -0.11090292408428
H           -2.69177723188741        2.74289947215461       -0.56689268821146
H           -4.19050921703961        1.98236984544193       -0.21708044021505
C            0.16596554050668        0.43286723407615       -0.16057963201765
C            1.21629098907197        1.30603748764286       -0.15135664125545
H            1.05412830217679        2.37628726945074       -0.16217611879292
H            3.04704307545158       -2.40072773799262       -0.46505266096725
H            3.32390107985466        2.68684173716499        0.39609896469744
H            4.45293633179992        1.36350941725866        0.38923172294879
