27
 energy: -49.262466084125 gnorm: 0.000845439321 xtb: 6.6.1 (8d0f1dd)
N           -4.62934262115747       -2.27075988104331       -0.08745704640636
C           -3.79871455137565       -1.47797513218167       -0.03344693734558
C           -2.77136408060550       -0.51306717056459        0.01157880985381
C           -1.41286853921398       -1.04722004838298        0.03568723594629
C           -0.35818407924587       -0.20830782912602        0.00620839055023
C            1.14303868516786       -0.30177988088061       -0.00548232572527
C            1.19845343729833        1.14345630904137       -0.03107949926404
N            2.47579369446781        1.62276368469942       -0.02867730120011
C            3.21985961607591        0.53874699724417       -0.00429652709001
C            2.42828381140669       -0.73819461186378        0.01976306912158
C            2.99036284985446       -2.00995068579885        0.06377356897468
N            3.47760839785862       -3.05132560291884        0.10310884942152
N            4.56684918498085        0.55205083652221       -0.04876268265545
H            5.03295284068739        1.43566530127923        0.05807743935689
H            5.07376384992846       -0.29197502340624        0.15444553992196
C           -0.19662275761778        1.23646468969173       -0.00947620229706
C           -1.16052435508251        2.28724492517349        0.01704055281901
N           -0.66360006755958        3.54581574467240        0.02347810860476
H           -1.26968825794455        4.34482201108841        0.05848516109875
H            0.33332990810531        3.67305704152760        0.02026271005461
C           -2.51413681472864        2.03130958905464        0.02814643932773
C           -3.19548811303446        0.79315382763299        0.01045090368671
H           -4.27517344354368        0.90195606594245       -0.00734016612640
H           -3.15878242434672        2.90184605627343        0.04197486885069
N           -1.25425943206552       -2.41270587179250        0.15751971188274
H           -0.33587657291129       -2.77303939597052       -0.04458313240465
H           -2.02316038209983       -2.99559018921379       -0.13147896735717
