24
 energy: -41.301986457586 gnorm: 0.000496570032 xtb: 6.6.1 (8d0f1dd)
N            3.79393991449459        2.24216441124986        0.03014143737246
C            3.33214232135433        1.18802367780015        0.02281239229048
C            2.67670037116344       -0.04174912493973        0.01242016289590
C            1.26581068305642       -0.21943161858808        0.01846484481173
C            0.99413801185052       -1.63331575930720        0.00467722133476
C            2.16968760222657       -2.31813888726485       -0.01374852497786
C            3.21348963269089       -1.32739625354677       -0.00587932810185
H            4.26421359683123       -1.55458395886837       -0.01272713050229
H            2.34564312334018       -3.37886228804646       -0.03060005034726
C           -0.47384199097364       -1.31790872698093        0.00681008148639
C           -1.68807475781910       -1.92447019023843       -0.00058750629012
C           -2.90027007785882       -1.20719468791116        0.01405352835353
C           -3.11301261126277        0.16974593768671        0.02900997792975
N           -2.26467503119658        1.21887955639206        0.00258931183218
C           -0.95948522725178        1.22942157477091       -0.00010818383880
C           -0.11796262153272        0.07212989834772        0.01567278519773
N           -0.34763786610427        2.43267574164108       -0.03672011577859
H            0.65508002197843        2.49717676868411       -0.01633381868371
H           -0.90457676402179        3.26815251502502       -0.02828077653479
N           -4.41332527677306        0.60238335168310        0.12096906123127
H           -5.15986030474427       -0.02618774747575       -0.11662204396123
H           -4.56144780561838        1.58283516891094       -0.04511330128878
H           -3.80207917717145       -1.80581513555883        0.02290634548303
H           -1.74540313375816       -3.00369646916490       -0.01300341121400
