24
 energy: -42.099360069634 gnorm: 0.000852078434 xtb: 6.6.1 (8d0f1dd)
N           -3.29396581890436       -3.41438621828479       -0.00173761031395
C           -2.55237983583270       -2.53923715134698       -0.00219245747419
C           -1.62482595547849       -1.46948422479821       -0.00119335345371
C           -2.17166833631255       -0.21035084576549       -0.00144957165228
C           -1.57442592305382        1.08403827531089       -0.00098364356534
C           -2.50088149699943        2.15122815585890        0.00426789628015
N           -3.23623641766930        3.03351896415941        0.00904338359727
C           -0.22776626621369        1.44956545809981       -0.00436553922624
C            0.81111303457615        0.47557527866371       -0.00610040495356
C            2.21044264800823        0.49425531242266       -0.00745594345479
C            2.24599250410153       -0.96661277163272       -0.00014496572043
C            3.53329023140242       -1.37699684628532        0.00667854836182
C            4.33496071133667       -0.16174644660857        0.00151145828105
C            3.54760467747215        0.96293722931758       -0.00641910804338
H            3.89417284379504        1.98027182383591       -0.01196203134751
H            5.41011490325092       -0.16799796634545        0.00423362241932
H            3.94113283092309       -2.37106211825820        0.01455728343540
C            0.76521007001091       -0.98193876757461       -0.00128502439302
C           -0.24534862799401       -1.86882278506944        0.00060400321579
H           -0.03881909424017       -2.92963363196691        0.00368506216778
N            0.15008372108588        2.74766356113658       -0.01113714057502
H            1.12795476361237        2.97558669747011        0.00529787731768
H           -0.53297741556326        3.48560958916462        0.00489796014328
H           -3.25664302591364       -0.17722817190347       -0.00132941894612
