26
 energy: -45.551928957632 gnorm: 0.000381785117 xtb: 6.6.1 (8d0f1dd)
N           -4.79875284854218       -1.55798079235324       -0.00235067730046
C           -3.68556921203303       -1.26892994587757       -0.00315695012055
C           -2.31882483145613       -0.91330621865322       -0.00304034445500
C           -2.06859949650024        0.49367714830921        0.00227573488829
N           -3.14812803143513        1.30407730708189        0.00835839175367
H           -4.07783311000309        0.91887424180772        0.00659018400779
H           -3.02575868014404        2.30312802926329        0.00969300388115
C           -0.79708516850724        1.12190021816755        0.00104280996570
C           -0.75957053560565        2.53017963862102        0.00499927840045
N           -0.75134686938714        3.67980051802657        0.00983814211310
C            0.41506976436465        0.44473538223994       -0.00322911586113
C            1.79691124979933        0.75989913494741       -0.00552956152519
C            2.12660931559106       -0.67324705731081        0.00504413565121
C            3.51360083849731       -0.79674664145876        0.01374695837690
C            4.01328361180285        0.53711626187724        0.00153029636440
C            2.97891389498931        1.48255257037980       -0.00970638664778
H            3.10886275113075        2.54912798114362       -0.01919411898211
H            5.06185655294595        0.77761855743977        0.00167888064158
N            4.27595422939986       -1.92832834878083       -0.03039447530128
H            3.83866060264938       -2.79761286149288        0.22411194150044
H            5.25019686382326       -1.83778741316979        0.20503368029545
C            0.74234581733596       -0.99239715064380        0.00058085951714
C           -0.07803034036519       -2.10037465462841       -0.00491515667775
C           -1.46049017906473       -2.01932039104497       -0.00775670825893
H           -1.98447359015178       -2.96949931254022       -0.01276617300283
H            0.37288734346590       -3.08297391105049       -0.00874361192426
