20
 energy: -33.597423412629 gnorm: 0.000755861364 xtb: 6.6.1 (8d0f1dd)
N           -4.10866278995621       -0.05222580653107        0.12833554209678
C           -2.73161932970729        0.03324296823911        0.03930197656280
C           -2.17660079198117        1.28990416253127       -0.01957187637961
C           -0.80927486423059        1.68349349043783       -0.02807988114132
C            0.20685901703009        0.80902006187967       -0.13439466440599
C            1.68775671037969        0.75725378116173       -0.12971919339535
C            1.64983738323529       -0.65506217472539       -0.48050976978814
N            2.89436145588045       -1.16656843618262       -0.32548396868289
C            3.57162192043995       -0.12568817065592        0.11190244501076
N            2.87041534495137        1.05015958120396        0.33233368486332
H            4.62061163663852       -0.17680764005294        0.33325379035268
C            0.26110887036713       -0.63788709628578       -0.25616754692182
C           -0.75905994932993       -1.57543094855062        0.03165718216520
C           -2.06926527935702       -1.24545334955815        0.13627114291742
H           -2.75627750116375       -2.06687436395546        0.30937875896294
H           -0.46948199929388       -2.61315110031491        0.12811964207099
H           -0.59802126742887        2.73939730278817        0.05715837056573
H           -2.88558519558273        2.10939297194659       -0.02046342363879
H           -4.54356220357948       -0.92671966861826       -0.10935988655977
H           -4.63826304191157        0.76895995004281       -0.11118073615491
