23
 energy: -36.779405044517 gnorm: 0.000693675820 xtb: 6.6.1 (8d0f1dd)
N           -3.46365557755103       -1.85202118761634       -0.01525463415011
C           -2.52428765336129       -0.87106923935436       -0.00665358140579
C           -3.01171309544666        0.45696819121912       -0.01527011464517
C           -2.35983792131452        1.67724554809910       -0.02238197888344
N           -1.07549573091645        2.02115515194349       -0.01499166334240
C           -0.13748443827635        1.10825923069364       -0.00890902722312
C            1.28039690537114        1.10024159570956        0.00357299839124
C            1.28051705400480       -0.36116662948067       -0.01511423281574
C            2.60121750145082       -0.79613852564789       -0.01451047445251
N            3.09068235302908       -2.07942271400680        0.02915801054795
H            2.47019532709620       -2.80666972361169       -0.28756791729993
H            4.05311554268425       -2.19487128856216       -0.24655428253946
C            3.39287064246877        0.38736889265107        0.01292672297546
C            2.60020071982726        1.53824857649980        0.02505323286921
H            2.96853019477259        2.54769966314635        0.04485684270831
H            4.46939068958550        0.38057804393879        0.02263099165846
C           -0.14318578710684       -0.38239509053879       -0.01955989293466
C           -1.17813694584120       -1.27867927617149       -0.01359549385233
H           -0.97206375205753       -2.34236093137729       -0.00770469376487
H           -3.00970680246677        2.54871426374244       -0.02977051652182
H           -4.09446520750225        0.52556990089013       -0.01545838084330
H           -4.43788323471082       -1.62289016105484        0.06903264692075
H           -3.19071143143869       -2.81446658591115        0.07124815580330
