23
 energy: -37.578216043731 gnorm: 0.000992862233 xtb: 6.6.1 (8d0f1dd)
N            4.49797793005063        1.63557880295288       -0.00575858289446
C            3.49817893035443        1.07114248285697       -0.00391695689908
C            2.26395219981219        0.38222636206617        0.00225596869740
C            1.10338513271980        1.22200418170361       -0.00471392445597
C           -0.14964476338627        0.72622714471194        0.00448072290556
C           -1.54821786239949        1.21019364591216        0.00079654759641
C           -2.00560376967934       -0.17352028690591        0.02349336475210
C           -3.41932128082696       -0.16475839049948        0.02461828373744
C           -3.78399067405271        1.16167344468609       -0.00050877152894
C           -2.62480571898519        2.03167525904268       -0.01729933964251
H           -2.67217240884390        3.10508811965355       -0.04092788254322
H           -4.79523012099869        1.52747169599860       -0.00700457355456
H           -4.08873478688809       -1.00582147364596        0.04344620502917
C           -0.67806674391324       -0.62841155845091        0.02322096958359
C           -0.01457055140342       -1.88775563200971        0.01981665355762
N           -0.80829462811515       -2.99557255913873        0.06865911432476
H           -1.79395607353047       -2.87851729323884       -0.08554170784405
H           -0.41029789384187       -3.90399257755115       -0.09024933630126
C            1.36104023048354       -1.99760978319575        0.01066546976687
C            2.35095906256378       -0.99477856946976        0.00893289460714
H            3.36460523572585       -1.38092137859909        0.00846288604766
H            1.74565760039357       -3.01132712665143        0.00761276025744
H            1.26536216796087        2.29095798407206       -0.01722110879908
