21
 energy: -38.128123717516 gnorm: 0.000834840300 xtb: 6.6.1 (8d0f1dd)
N            2.49360892854689        3.09368257977110       -0.09072710651943
C            2.18002253456467        1.99060023670685       -0.04977259849970
C            1.80930840596611        0.63081999321014       -0.00456235221143
C            0.47520451026760        0.27028667166434       -0.04875161221062
C           -0.81723567267973        0.86569805756984       -0.07102763905710
C           -1.43603221896453       -0.45955190317912        0.05647928634982
C           -2.81676589946176       -0.21747265560423        0.06773628249586
N           -3.85146789593886       -1.06627904007343        0.20832461854658
H           -3.71321773703573       -2.05698484809876        0.12585963203129
H           -4.77694341736966       -0.68947721811441        0.10004830182342
N           -3.03767995790287        1.12228018335389       -0.05251022740346
C           -1.86630337741018        1.77160720220597       -0.13677315818717
H           -1.85646331799726        2.84027837877429       -0.24431265624047
C           -0.15507990284111       -1.07153054745278        0.06172681154361
C            0.41411192636169       -2.32552945349045        0.00140941562976
C            1.78726971401227       -2.48347573843297       -0.17971921919110
N            2.77262427740335       -1.63490225721285        0.03240963736564
C            2.81460301764757       -0.34618006392911        0.20918839754504
H            3.78974613712627        0.02049609437304        0.51866217745400
H            2.14248300377150       -3.46718014890228       -0.47312586060398
H           -0.21779210827031       -3.20285471424028       -0.00228643616073
