27
 energy: -50.075012681095 gnorm: 0.000667010786 xtb: 6.6.1 (8d0f1dd)
N           -1.55682710959069       -3.79294546193396        0.04189716134645
C           -0.84528368242863       -2.89176607701569        0.01881133366239
C           -0.04628723057045       -1.73062374101916       -0.00167531716741
C           -0.72065709653549       -0.51321857410127       -0.01300928537201
C           -2.04788674233129       -0.04313956550240       -0.01162708135704
C           -1.55696436177759        1.34936889816027       -0.00548692326172
C           -2.65698155308659        2.19040447846311        0.01928791436065
C           -3.78943554872619        1.36252364626504        0.02584960515029
C           -3.44257609035869       -0.02073049565922        0.00757031704535
N           -4.29669866770772       -1.06793114417863       -0.03488258085665
H           -3.93414144439843       -1.99990198746685        0.07318002759451
H           -5.27599891157025       -0.91612864322895        0.13082262983210
H           -4.80378711231095        1.71958025821876        0.04459627993609
H           -2.67370206800644        3.26473766409637        0.03295701050332
C           -0.22100546482898        0.87393691840618       -0.01036591267760
C            1.06986014179773        1.38512925645252       -0.00610211177140
C            1.21611212269840        2.78774801560354       -0.00119445719099
N            1.35341595262842        3.92851363598139        0.00503543221535
C            2.24738752990480        0.59627451341066       -0.00698870249954
C            2.32177295971677       -0.83672331687109       -0.00461152523149
C            3.63832960312771       -1.35549617598618       -0.00134952729574
N            4.70611356848853       -1.77994851340545        0.00098465645058
C            1.34693354266067       -1.83048076080745       -0.00008135323615
H            1.73893599359569       -2.84256513761135        0.00677627045561
N            3.42241829311476        1.25838565631369       -0.00767777874651
H            3.43111050679665        2.26517398289944       -0.00689828018918
H            4.29503394339830        0.75649307731673       -0.00542072239923
