21
 energy: -38.134152170545 gnorm: 0.000405238926 xtb: 6.6.1 (8d0f1dd)
N            4.67176475456959        0.66115457588752        0.00010665192312
C            3.53069421207727        0.52372913619271        0.00073528256692
C            2.13115025470219        0.32995230072114        0.00008172113944
C            1.70891300200033       -1.04548232189099       -0.00031699670418
N            2.67987272275638       -1.97441635481079       -0.00042805657098
H            2.44604998757557       -2.95216592584160       -0.00068962412013
H            3.65059948570849       -1.70454831951168       -0.00026660757724
C            0.37817679146344       -1.49929596560661       -0.00056561948189
C           -0.69429189534133       -0.65201277154838       -0.00047277366362
C           -2.12980113201762       -0.71488153246367       -0.00067460252218
C           -2.20408691535523        0.75115080255249       -0.00041972229839
C           -3.56059254508505        1.05239554039105       -0.00059755229967
N           -4.26905213989872       -0.08675542235115       -0.00091430599499
C           -3.43551222189115       -1.15520972404003       -0.00096738785522
H           -3.84436616474061       -2.14842221508022       -0.00120608344944
H           -4.06458886781048        2.00019666178691       -0.00052122609891
C           -0.78187673877189        0.82387290047042       -0.00019567464797
N            0.10529787506064        1.78684350318846        0.00013114997380
C            1.40023581901018        1.52141323518297        0.00027960818047
H            2.00670705969225        2.42420003721639        0.00063734234889
H            0.21254924189576       -2.56897814254496       -0.00082455174781
