21
 energy: -38.121358648257 gnorm: 0.000895186529 xtb: 6.6.1 (8d0f1dd)
N           -4.09648032333351       -2.19515510325393        0.40706301878838
C           -3.43915098705256       -1.25900360289113        0.29726084668393
C           -2.61094666570693       -0.14505956051110        0.15339347455800
C           -1.20887211174876       -0.05063681097001        0.39779465434014
C           -0.88864585967062        1.35252028852882        0.15471049134147
N           -1.90647419333976        2.02014773260767       -0.29975163694050
C           -2.96992794655380        1.14855284347701       -0.21836840638377
H           -3.95361054179681        1.49863121988005       -0.47067388144216
C            0.56175655753045        1.03909125102537        0.14585199136430
C            1.77588429929495        1.61269320262546        0.04166508920268
N            2.95750813171637        0.95123442258424        0.07374461322903
C            3.16650176639422       -0.32568339756478       -0.00534482746328
C            2.26098781677778       -1.45098511112442       -0.26241500231576
C            0.91410474595482       -1.48961140954964       -0.18850065013277
C            0.14099555111667       -0.35400811670838        0.17906486388537
H            0.39031883376058       -2.41524327615348       -0.39050964137869
H            2.77369153552011       -2.36716303065483       -0.53000325290763
N            4.47629438312043       -0.68790933112157        0.07282762246241
H            5.13593164317170        0.03373883713332        0.30643770900251
H            4.75079173219165       -1.64741609177086        0.17576445300444
H            1.88034538685303        2.68698743251224       -0.03152254739814
