23
 energy: -41.597487819114 gnorm: 0.000985017585 xtb: 6.6.1 (8d0f1dd)
N            5.20735530569465        0.85026340575828        0.03614048266063
C            4.06498834222551        0.71174982095359        0.01133831583730
C            2.68824337572519        0.49143153315696       -0.00257847517128
C            1.68572311197603        1.49923612134211       -0.01520322149398
C            0.48330529044729        0.83169026078827       -0.00634242495583
C            0.73639301635745       -0.61622950852024        0.01090260849740
C            2.11327450721787       -0.82406975703637        0.01380203260678
N            2.81977747506704       -1.98359503726600       -0.02762125856630
H            3.81164205187763       -1.93726127906354        0.13859537384044
H            2.35261792156821       -2.84434688615303        0.19712152431256
C           -0.65451433949133       -0.88279683031115        0.01132259704872
C           -1.55919709257080       -1.92361921233004        0.00999130063184
C           -2.93075730509671       -1.67633271258483       -0.00378517022722
N           -3.62757706938796       -0.55892913857637       -0.00426653313633
C           -3.21693045191809        0.71233583810963        0.00097120941582
N           -2.00391656560148        1.30066827266589       -0.00748105314777
C           -0.92100098163105        0.58310145730881       -0.00297481486845
N           -4.22966830668130        1.59421320082287        0.01223749687032
H           -5.17517657135641        1.25474437804022        0.01384208550441
H           -4.02210812266658        2.57727021113512        0.01124541609891
H           -3.57858835300763       -2.55122090014336       -0.01445923326492
H           -1.21702038497480       -2.94957999690410        0.01228200299633
H            1.88260835512739        2.55509356120735       -0.02746082608935
