22
 energy: -43.450809765519 gnorm: 0.000613328416 xtb: 6.6.1 (8d0f1dd)
N           -5.49392059395846        0.00080214630746       -0.00137377113858
C           -4.34586896625104       -0.00136977728982        0.00025365308544
C           -2.94448746229986       -0.00061809939126       -0.00024905862539
C           -2.14700375951553        1.17163925239832        0.14203096903606
C           -0.84542492616709        0.73045691241353        0.08403428169070
C           -0.84512088222182       -0.73073834373098       -0.08416264405593
C           -2.14645446171170       -1.17246588667071       -0.14263392868955
H           -2.52625254028763       -2.16998738491245       -0.25915148108349
C            0.58388649045580       -0.72917358315622       -0.07978704005126
C            1.62814673342752       -1.64973739114447       -0.03412960730991
C            1.36612964938872       -3.03336416945561       -0.08663119491489
N            1.15557345916849       -4.15930118227609       -0.14185872614919
C            2.92507693043157       -1.17706696901427        0.26756538833306
N            3.40025013213434        0.00046250624391        0.00067146991213
C            2.92483913745028        1.17786631689348       -0.26632853278325
C            1.62768653382867        1.65020000722630        0.03500435418871
C            1.36551396988131        3.03378378734712        0.08834244114767
N            1.15379917848507        4.15948452689848        0.14147774787204
C            0.58361551898877        0.72938369526371        0.08018046623178
H            3.63598537852536        1.86778530673579       -0.70922202473807
H            3.63623172408539       -1.86677060757316        0.71081709877266
H           -2.52723806033805        2.16900367968689        0.25871246436906
