27
 energy: -49.283519487346 gnorm: 0.000827232188 xtb: 6.6.1 (8d0f1dd)
N            4.72334675874679        0.99062700271057        0.00072316548121
C            3.59236846717727        0.76902220587866       -0.00096564114158
C            2.21006675994070        0.50723866856210       -0.00069235018129
C            1.40127481131913        1.68623621685754       -0.00288232499635
N            0.07411367490177        1.83861868660571       -0.00670137977020
C           -0.74663025472133        0.82502137852992        0.00236479189363
C           -2.15139042633656        0.66960464460487        0.00181274665770
C           -1.98581634890360       -0.79978748198675        0.01543572685052
C           -3.24081154764199       -1.37798970082930        0.01062767972024
C           -4.15919849471891       -0.31647276809301       -0.00863541179683
C           -3.51319669411818        0.95073723963965       -0.01660526731561
N           -4.13722208187108        2.16661119985480        0.02725379671918
H           -3.58258383171396        2.96867684213429       -0.22073362442427
H           -5.10338585415214        2.19608826239164       -0.25388074071726
H           -5.22866812656067       -0.43769587476070       -0.01785452379046
H           -3.49552981014918       -2.42185894491315        0.01785142474717
C           -0.57923237046769       -0.65116865840322        0.01303022850965
C            0.56497782913153       -1.43072528581158        0.00585507250247
C            0.43562397037670       -2.83162766044255        0.00390609412481
N            0.35159702549343       -3.97845503151475       -0.00081730958397
C            1.87373910964047       -0.87357384781592       -0.00007040947870
N            2.89808673404467       -1.75383264996669       -0.00537385879929
H            2.70604615862962       -2.74151400507391       -0.00198109928037
H            3.85167984083070       -1.43386786137385       -0.00695053180270
N            2.04488979963062        2.87125672883608       -0.00660160193264
H            3.04815064172872        2.93310691721305        0.00509518031539
H            1.48005488366319        3.70221306326612        0.00146654948941
