22
 energy: -41.073288392718 gnorm: 0.000652704188 xtb: 6.6.1 (8d0f1dd)
N           -3.86209614493789       -1.41774245360105        0.00491834360956
C           -2.79306424600837       -0.59744332454267        0.00522112166175
N           -1.61255715905136       -1.24407561517176        0.01572874981379
C           -0.52158732107720       -0.52877574390497        0.01487615370175
C            0.86856506382278       -0.73811167730624        0.01452517172006
C            1.10754800782354        0.72250993944237        0.00742886849896
C            2.50608753665919        0.86727268258728       -0.00470964407275
N            3.09133469673532       -0.35059879395236       -0.00365200789741
C            2.13897261272054       -1.32096202297627        0.00779536644364
N            2.49045210293301       -2.62477191215819       -0.04267632108907
H            3.45894591657269       -2.84289119557830        0.11623713911972
H            1.79815574390661       -3.31751135441585        0.18067625095579
N            3.24490547927142        1.99534520310338        0.03376781803251
H            2.79645782175544        2.87321145697650       -0.15860369703122
H            4.23330648599633        1.90776656780290       -0.12715184998619
C           -0.26932692591132        0.97499152324499        0.00525201927014
N           -1.07621444576242        2.01028152198134       -0.00655113039300
C           -2.38486740292602        1.78198004241272       -0.00654242749732
N           -3.12636212515742        0.69878931957549       -0.00288308911199
H           -2.97642219608678        2.69610190142029       -0.01259825023382
H           -4.78194975580598       -1.01638981824797       -0.01710249013923
H           -3.72062978667217       -2.41136890309153       -0.00513710497565
