23
 energy: -40.796564315898 gnorm: 0.000733629108 xtb: 6.6.1 (8d0f1dd)
N           -2.94432761885132       -2.44141113341137       -0.01722909152471
C           -2.11435014493201       -1.36981294010581       -0.00261623231860
C           -0.72370111732621       -1.62771640759232        0.03146559214819
C            0.17860019727794       -0.60426139067640        0.02864108667095
C            1.58146495118704       -0.35796804999571        0.02251966343227
C            1.34644850898685        1.09522175819011       -0.02175216031263
C            2.60168425781109        1.67778905128780       -0.04933532708500
N            3.54837126915211        0.72309568019192       -0.01756141590630
C            2.96399547067925       -0.50564402475843        0.02336811509356
N            3.73488172182650       -1.63577814215557       -0.00721551879477
H            4.70795108912193       -1.47558608221220        0.20067107739630
H            3.33489014017221       -2.47086645162230        0.38747423585859
H            2.89278335330648        2.71154726234444       -0.08319527783105
C           -0.05739485707001        0.86984727435489       -0.00907443635733
N           -1.12806388446889        1.60561906845540       -0.01552534178198
C           -2.34977081558091        1.03730086577593        0.01228645041498
N           -2.77788896394884       -0.21677984297317       -0.00121645180728
N           -3.34330018027242        1.94834998721704        0.04617785326244
H           -3.10333020632182        2.92292065129304        0.04457434699977
H           -4.29873472998594        1.64279571105743        0.06172138462864
H           -0.39473585636929       -2.65899029071094        0.04281967043002
H           -2.58672203899950       -3.37437801210036       -0.10721093308318
H           -3.93107628359423       -2.27420994195344       -0.10113383033285
