27
 energy: -49.265959747692 gnorm: 0.000731308373 xtb: 6.6.1 (8d0f1dd)
N            4.85787900321569        1.57786043639276        0.09304537594512
C            4.17367085416708        0.65252003189736        0.07511277094175
C            3.25259384849805       -0.39285374700501        0.04661382992798
C            1.83673530990336       -0.22980880593547        0.05492714096630
C            1.23828391160007       -1.53403278215791        0.02019054000812
C            2.21492267804433       -2.47827386215439       -0.02389259409557
C            3.46946274839171       -1.76535560829281        0.00247790423371
H            4.43384397600684       -2.23838559738489       -0.01134139875172
H            2.13509942332538       -3.54959365685686       -0.07326638024626
C           -0.11991635208675       -0.86779118904428        0.00091106748623
C           -1.44476116489273       -1.19998340670687       -0.03729437765149
N           -1.82271284798765       -2.51331742763107       -0.14606694484628
H           -2.77820942118664       -2.75853053612397        0.05206015934167
H           -1.12006723976186       -3.20551946634705        0.04876029555545
C           -2.46399642744529       -0.18458577864322       -0.01379592061362
C           -3.78373176896319       -0.66256221478606        0.00794956061236
N           -4.86111586891399       -1.07008131970825        0.03418967248743
C           -2.32118978417431        1.21873777334292        0.00622348155466
N           -1.24064846123340        2.01820787134117       -0.02890839937817
C            0.02930507849654        1.71259362252830       -0.02712291757891
C            0.56032048764386        0.38402761550093        0.02170129007039
N            0.91297181053404        2.72546817280448       -0.07786598685123
H            0.57812874949820        3.67199671539846       -0.11187099036353
H            1.90176928908368        2.54192690869963       -0.06228480918530
N           -3.45819326848395        1.95893529488698        0.07372962301204
H           -4.36595294910313        1.53068206029869        0.03783222952221
H           -3.36585083957605        2.95721963288976        0.03102995619748
