23
 energy: -42.376328201678 gnorm: 0.000931826836 xtb: 6.6.1 (8d0f1dd)
N           -5.13916794465188       -1.07005917281655       -0.00550765694610
C           -4.00839636998219       -0.88013232396597       -0.00349990531595
C           -2.60688301552716       -0.65548442521673       -0.00046472846626
C           -2.24120573767039        0.69109757099572       -0.00363769265396
C           -0.96006543558324        1.26028161655469       -0.00159559630673
C           -0.86233397848397        2.67215883964721       -0.00492316223632
N           -0.78586591107217        3.81601380203447       -0.00879138068790
C            0.20896301219794        0.51715329222508        0.00292057479443
C            1.61901478344651        0.72085822766752        0.00546825388350
C            1.83135191609088       -0.72948769662216        0.00557099907701
C            3.22573994977909       -0.89388497447966        0.00660539246067
N            3.82202497073015        0.33363976128421        0.00890661665544
C            2.88462048185724        1.29267657992597        0.00828550790844
H            3.18009617559277        2.32544326187252        0.00990370607328
N            3.97258162533502       -2.00687217413706        0.02054648530548
H            4.97179237051686       -1.90680446112839       -0.02264549769893
H            3.55456016232864       -2.91643510350357       -0.04904412021552
C            0.42829498962048       -0.94596231593030        0.00464466993212
C           -0.46643765267556       -1.99940524883971        0.00711327102598
C           -1.83866873162628       -1.83920351073804        0.00510411328897
H           -2.42719777778870       -2.74973640524026        0.00763596304522
H           -0.07279519032643       -3.00732803123503        0.01122897015363
H           -3.06553625700724        1.39642038114617       -0.00783015807649
