26
 energy: -44.759004167016 gnorm: 0.000829008460 xtb: 6.6.1 (8d0f1dd)
N            4.77697907990445        0.48755506886856       -0.01933487069840
C            3.63886216865598        0.29858655745253       -0.00746082623809
C            2.25292773098352        0.07288716480808        0.00410223914972
C            1.86999109308848       -1.30120972123671        0.00507297132020
C            0.56556064918768       -1.82013420412500        0.00660454025524
C           -0.55174016251612       -1.03096010683162        0.00517980138301
C           -1.97205974471332       -1.14515560543379        0.00288582583492
C           -2.10107071698568        0.32062191153538        0.00592338826463
C           -3.45848840304086        0.63812165690322        0.01299219740805
C           -4.13526188136461       -0.60561793786246        0.01363982154937
C           -3.23849496918927       -1.69124398789439        0.00842015999355
H           -3.52539108870512       -2.72758815547429        0.00969149132833
H           -5.20742738122099       -0.70257649414241        0.01854730030725
N           -4.04626179584522        1.87701235381780       -0.05120120762202
H           -5.00711767770760        1.93266572632431        0.24635607511484
H           -3.46658412488254        2.65371955167520        0.22233332083483
C           -0.69444662342514        0.44778972679658        0.00764117771716
N            0.14717192481169        1.44675970921525        0.01517214729152
C            1.47046886571828        1.26591830709197        0.01107688887029
N            2.13863175849958        2.44034468097605        0.01671494436567
H            1.59058477479098        3.28210015755239        0.00861215502183
H            3.14254711137001        2.48299388395832        0.00259120096893
H            0.45780687724795       -2.89738323577754        0.00613689923252
N            2.87933446260183       -2.20661255682670        0.01098929904352
H            2.67107640678472       -3.18804085023150       -0.01842255750656
H            3.83967362895130       -1.90988219783925       -0.01514561779031
