21
 energy: -37.372307466865 gnorm: 0.000683271000 xtb: 6.6.1 (8d0f1dd)
N           -2.76810094349953       -2.21312167945319       -0.00485837511128
C           -1.87526846642492       -1.20960276376656       -0.00451402628176
N           -2.42910903685902       -0.00047706065905       -0.00446598182569
C           -1.87538754627370        1.20870313086568       -0.00417395336662
N           -0.59763658672884        1.63657188190591       -0.00378221205141
C            0.35624323836368        0.74202892421020       -0.00368576187772
C            1.77834337777144        0.73555701755759       -0.00339971172614
C            1.77841584467618       -0.73609711080496       -0.00357183538234
C            3.08938631618889       -1.16893290048810       -0.00341118006197
C            3.87532087781413       -0.00016687085375       -0.00300225052179
C            3.08927118959131        1.16852180794540       -0.00297481024436
H            3.46522092994403        2.17505530130738       -0.00271494058890
H            4.95243809732635       -0.00011386640218       -0.00276126287230
H            3.46543517853202       -2.17542939846608       -0.00350380322260
C            0.35631637295096       -0.74270897684033       -0.00394297706165
N           -0.59747537909771       -1.63734578864929       -0.00430344107638
N           -2.76831879576524        2.21213421137130       -0.00425898779990
H           -3.75016462359290        2.00374072404968       -0.00464134751551
H           -2.43103312423853        3.15799976151588       -0.00414619222362
H           -3.74996732800575       -2.00482475543288       -0.00497778131816
H           -2.43072221087281       -3.15895404611264       -0.00487248376986
