24
 energy: -46.103449583563 gnorm: 0.000948653263 xtb: 6.6.1 (8d0f1dd)
N           -5.03599386331841       -0.63790813043482       -0.01459761057233
C           -3.88743373169756       -0.61723111731959       -0.00987430229022
C           -2.47302914704447       -0.57593919676226       -0.00533145883707
C           -1.88616054592294       -1.84712650359893       -0.00947898708102
N           -0.62940646648185       -2.26480295579496       -0.00288682845928
C            0.36435469413414       -1.42314185982272       -0.00002830786185
C            1.78206636871020       -1.49490374790599        0.00658119308338
C            1.85398957061143       -0.01878542827521       -0.00386124430758
C            3.21928918185092        0.28758080519462        0.00395534115656
N            3.93344284867178       -0.87592735434258        0.02126130051443
C            3.10107278484505       -1.92753479892545        0.02428467269270
H            3.50602510913529       -2.92248439848869        0.03786182867148
N            3.83710087144263        1.47809185664452       -0.01857319036098
H            4.84013213327002        1.49792725699296        0.03200273947621
H            3.30978027565581        2.33148575741088        0.02317518187214
C            0.44989111377928        0.07333851714707       -0.00596637389679
C           -0.53262768412168        1.04945728909746        0.00014002203884
C           -0.11288273850817        2.39372822233443        0.00870168818463
N            0.26575412631909        3.47883244934590        0.01591095065254
C           -1.91680578432895        0.74423885490396        0.00262945818166
N           -2.77864007142372        1.77905737764334        0.01214416266107
H           -2.43333712036355        2.72465745307459        0.01555396619671
H           -3.77272886947920        1.61902431376935        0.01221912674839
H           -2.59410769453479       -2.67127247508775       -0.01775404526362
