21
 energy: -38.136178894278 gnorm: 0.000792997119 xtb: 6.6.1 (8d0f1dd)
N           -0.37756319241536       -3.54182763182270        0.00027017234725
C           -0.80297066871539       -2.47426574161845       -0.00865462210095
C           -1.24359019031262       -1.13956379473125       -0.03755612879684
C           -0.29535129724006       -0.12445084035025       -0.17570570768937
C            1.09830015859714        0.04363877587592       -0.16104129153191
C            0.94294863746646        1.49730226766008        0.02721259611507
C            2.20937732598584        2.04074995064802        0.21050817803116
C            3.11616829963879        0.98024917698395        0.11597170892087
C            2.46010907334093       -0.26662729014391       -0.10800230257247
N            3.04991300926687       -1.47080069018009       -0.27183769550055
H            2.47898708180293       -2.29882612478660       -0.28146330199656
H            4.03274979725265       -1.57108586233934       -0.08957378983802
H            4.18302540252885        1.07839988609670        0.21340571160288
H            2.47168697183097        3.06673553992396        0.39247892415041
C           -0.46308577294040        1.35833098104319       -0.02074309268044
N           -1.51948705020766        2.13412375268530       -0.06435432181383
C           -2.70920009465354        1.57375275288014       -0.23186872269790
N           -3.15146582634570        0.37583007391316        0.07037840536318
C           -2.56563214584953       -0.77287364679902        0.28264512083646
H           -3.21051691054675       -1.53099077423695        0.71896325317668
H           -3.47953822588436        2.25293751349792       -0.58823746722545
