23
 energy: -42.371290562192 gnorm: 0.000666118846 xtb: 6.6.1 (8d0f1dd)
N            5.26193367095887        1.01534952442089       -0.06508805065997
C            4.18534637473415        0.61981486184881       -0.04950267916395
C            2.85628935293691        0.13357053795227       -0.03239276230692
C            2.72372171537565       -1.24168819295429        0.01126062719860
C            1.59308334450987       -2.07577919121177        0.06083853158281
C            0.24570401814707       -1.75709633824431        0.01773434268417
C           -0.19433551873152       -0.41292709729660       -0.13927047381274
C           -1.44890848949607        0.22448013358453       -0.25131640660460
C           -0.80330826849781        1.50797194724773       -0.08450822807669
N           -1.63611302806925        2.46610081849465        0.21287035473921
C           -2.87451646797141        1.87225294714114        0.15740924024002
C           -2.83359447994910        0.49543571911558       -0.08853643491009
C           -3.87659376567479       -0.42591610044556       -0.17097064204724
N           -4.67487945836933       -1.25134373727550       -0.22896380296630
H           -3.75069112607346        2.47078342785163        0.32161718411666
C            0.53014208989676        0.83653750860732       -0.09092561653427
C            1.84069376331306        1.14248312465780       -0.04144200168567
H            2.15708490219839        2.17465350448261       -0.00186474064029
N           -0.71144130269360       -2.71104302068489        0.09436938257892
H           -0.46920126351154       -3.68040986263025        0.19302320097845
H           -1.68261816686855       -2.45902913842808        0.02819336891714
H            1.81456915243644       -3.13414699957757        0.13317542473394
H            3.66473528799833       -1.78037570335631        0.02755452673930
