24
 energy: -45.289271375417 gnorm: 0.000491994191 xtb: 6.6.1 (8d0f1dd)
N           -4.12945685067074       -1.74450929613582       -0.08163362004851
C           -3.13519873042031       -1.16759821596368       -0.00308917556554
C           -1.92124968333937       -0.46780866495309        0.05822357275793
C           -0.72715089804506       -1.28602636707032        0.08907532917764
C            0.47682501332476       -0.71514313045227        0.34168335358053
C            1.93245508094370       -1.01369309264084        0.33262644812766
C            2.25387100119532        0.34819455382841        0.78804985774045
N            3.55289212282598        0.60728477086371        0.47435678049104
C            3.92930843339638       -0.49948716237706       -0.11597585707598
N            2.95037826019517       -1.46295810260612       -0.33425607675407
H            4.92975994425180       -0.65557857003813       -0.47164529628431
C            0.91778757677563        0.64650421297346        0.47531370508205
C            0.21790444950770        1.81372793082986       -0.00461651597050
N           -1.07213414726489        1.88693877170211       -0.12591148358430
C           -2.01302469400824        0.93154285940713        0.05262456125874
N           -3.24627006443047        1.48907539546211        0.16805900322133
H           -3.32492075698976        2.47811925457046        0.01352310447614
H           -4.07088244593769        0.91444695058513        0.15897203756326
N            0.96292529963340        2.88925069177100       -0.30437970445240
H            1.95971339960804        2.85236669415543       -0.17271027573432
H            0.52253494126649        3.72747986841273       -0.64073807390743
N           -0.85495245130805       -2.63971203371009       -0.05574177047710
H           -1.70634656360221       -3.00630140952639       -0.44558125281594
H           -0.01104303610782       -3.16628853358801       -0.20232512670647
