25
 energy: -45.027826578124 gnorm: 0.000551634143 xtb: 6.6.1 (8d0f1dd)
N           -4.17070596806061       -2.04088715913574       -0.15261860775192
C           -3.60322789314970       -1.03933608209688       -0.13670871860384
C           -2.82183081735480        0.11348029612638       -0.10153657080679
C           -1.39723738308877        0.13766294891574       -0.13818001739516
C           -0.97433028598000        1.50825864068332       -0.07895528239256
C           -2.06493367654086        2.31412063594611        0.01722953587466
C           -3.21583521673930        1.44485853419542       -0.01852908346849
H           -4.23398861275138        1.78681731145724        0.01608982767274
H           -2.12346423244399        3.38455107057238        0.10860082897604
C            0.46065393733556        1.02209748505272       -0.03918607089277
C            1.75544698992068        1.46950773330223        0.05458801632164
N            2.83797391750274        0.66463946204211        0.01134752519381
C            2.88565527855246       -0.64193700139468       -0.03724593728633
N            4.13490187956408       -1.14763028318070       -0.20981102177948
H            4.26668473741161       -2.13450819675710       -0.08312293229497
H            4.91524279852154       -0.52095412588132       -0.13343000893567
N            1.96883277552702       -1.64159391499430        0.05964906189406
C            0.66974253316293       -1.54054792336280        0.05804403784579
C           -0.05282413386263       -0.30389194272954       -0.06870703407920
N           -0.05656889696367       -2.66438707925895        0.19347985660063
H           -1.06108563246070       -2.62998792908205        0.15716727662403
H            0.41340269506884       -3.54826077410919        0.28085608309313
N            2.03701220119855        2.79938060354107        0.22554710582667
H            1.31861627350898        3.45913014089395       -0.01887979638690
H            2.99165828702164        3.07149628775400        0.06431138965101
