23
 energy: -42.371234941685 gnorm: 0.000695333221 xtb: 6.6.1 (8d0f1dd)
N            5.25496300861857        1.03208246127160       -0.00102253001075
C            4.18138814172378        0.62807427625171        0.00091304354139
C            2.85512111701173        0.13249275954008        0.00002179250566
C            1.83491808406151        1.13372390998040        0.00016646959672
C            0.52242882016277        0.82195082860702        0.00014124006325
C           -0.81069607240670        1.49933690010075        0.00024409953179
C           -1.45714904906734        0.21090777535846        0.00009117889315
C           -2.84468802426747        0.50691699040770        0.00005615777744
C           -3.89905322193353       -0.40485490330532       -0.00029756719907
N           -4.71641129564673       -1.21357852676760        0.00015228142248
C           -2.88282304965987        1.90786709760311        0.00025014474242
N           -1.64403291149851        2.50421132228732        0.00033235132922
H           -3.76141574115863        2.52508815605066        0.00028077500674
C           -0.19571803757432       -0.42949009474145        0.00001536487419
C            0.25839226050648       -1.77706300037708       -0.00014553662248
N           -0.68951174823750       -2.74363851683616       -0.00008774580719
H           -1.66367194170269       -2.49484475941002       -0.00036660996121
H           -0.43873923000466       -3.71556153357956       -0.00052268824534
C            1.60927654018657       -2.08792370439499       -0.00021701937224
C            2.73366537629170       -1.24567764778279       -0.00012824507693
H            3.67886592526489       -1.77705734915061       -0.00010893840926
H            1.83788766496073       -3.14734977674746       -0.00031041520335
H            2.14534352666921        2.16842189313420        0.00036816572342
