24
 energy: -40.483140495246 gnorm: 0.000602773155 xtb: 6.6.1 (8d0f1dd)
N           -4.37373776742732       -0.51325249203648        0.04381580134061
C           -2.99837605904548       -0.44172459536848        0.02858059287064
N           -2.41754171241918       -1.59489055047025        0.00835587417256
C           -1.07417545321938       -1.85347305782142        0.04676105205054
C           -0.10370815166524       -0.93803884382687       -0.06587735527746
C            1.38262118648459       -0.81368795587909       -0.11046472243776
C            1.26133586181968        0.63193573420068       -0.32264823576974
C            2.58283757890228        1.11743713004839       -0.27565875722179
C            3.34714959029073       -0.01603905172288       -0.03702843813303
N            2.59040641109550       -1.19966062303904        0.12194741333473
N            4.69359230498920       -0.11010228839242        0.15440524458293
H            5.05830317993210       -1.04818754906886        0.12847737843820
H            5.27277127938618        0.60813328295751       -0.24709644747507
H            2.95533181119919        2.11286607049293       -0.42022439875938
C           -0.12023207548990        0.51680917496460       -0.16878695205861
C           -1.23409781590222        1.40269080188810        0.02271245459746
N           -0.95160049710380        2.74133254026093        0.03859635539881
H            0.00959723718143        3.00307764758471        0.17946423488525
H           -1.65137948573000        3.37870459533474        0.37851270619499
C           -2.50652414021527        0.92834558546908        0.12329256934721
H           -3.28896377346393        1.66519908103350        0.26667060294564
H           -0.84355838345628       -2.90686917010975        0.13334546972408
H           -4.90654219537140        0.26632726713854       -0.30171182733412
H           -4.74479852707153       -1.43004509333793       -0.14597482561658
