22
 energy: -41.084371903944 gnorm: 0.000717693203 xtb: 6.6.1 (8d0f1dd)
N            2.73514292088496        2.48095131725008        0.01308337379369
C            1.99428688944972        1.35706686398174        0.00421059829601
N            2.72102827555041        0.24210304391712        0.00018028353925
C            2.36498351326839       -1.03413356644709       -0.00353434991014
N            1.16441864448379       -1.65711047822452       -0.01065535291850
C            0.09061031191805       -0.92409951322963       -0.01258645301834
C           -1.31579347271465       -1.12589163049661       -0.00952672846658
C           -1.53012890736875        0.33913424118152       -0.00410069944170
C           -2.91776945158566        0.50332614892069        0.01918724760555
N           -3.66172189783141        1.64018668286553       -0.02881274681403
H           -3.22114967262971        2.49877760325615        0.25365565541300
H           -4.63906964774968        1.52973282943038        0.18472191746132
N           -3.51211078535968       -0.71520971344106        0.03000999075159
C           -2.57584535514185       -1.68702583346624        0.01178183820897
H           -2.88350889837821       -2.71625046182825        0.01886120459865
C           -0.13881331461315        0.56227609984938       -0.00412668895327
N            0.66952281069514        1.59011120683125        0.00781400364626
N            3.39997832734920       -1.89315959110413       -0.00059337701095
H            3.20840146760586       -2.87870562579530       -0.00306236615391
H            4.33891499946341       -1.53895732421345        0.00712144169552
H            2.26883313121091        3.36964489765752       -0.00809653761241
H            3.73598413479293        2.41203975190494       -0.01123545441001
