30
 energy: -57.258269375906 gnorm: 0.000574251771 xtb: 6.6.1 (8d0f1dd)
N            0.93786155806754        4.13784567471158        0.02988066138002
C            1.19680321570673        3.01657845387056        0.01715277310916
C            1.49448822384794        1.64508597022186        0.00584824940343
C            0.44518305304284        0.74505802997487       -0.00405394713327
C           -0.96404260212925        0.74007433299405       -0.00823990445381
C           -0.96148471697214       -0.74269999486067        0.00987762831836
C           -2.27520511403729       -1.19312460627183        0.01844816121923
N           -2.74474886860472       -2.45973853719658        0.09064585314642
H           -2.10634520721760       -3.22483358331323       -0.04128481987250
H           -3.72667656161157       -2.62530570045096       -0.04784073547311
C           -3.08273272100284       -0.00498541186269        0.00040711163341
C           -4.47351801335530       -0.00739045194505        0.00007426401864
N           -5.62567855504427       -0.00939998149026       -0.00017163583757
C           -2.27931224254255        1.18594189022728       -0.01733675518763
N           -2.75321069538225        2.45091830261447       -0.08970602550695
H           -2.11751162779927        3.21822365420200        0.04243098977828
H           -3.73576815734529        2.61308689121075        0.04833086274733
C            0.44774595346154       -0.74281472293191        0.00579934566861
C            1.50013431693565       -1.63923452981853       -0.00400001866514
C            1.20704981953910       -3.01172180402254       -0.01443328402612
N            0.95246347820161       -4.13396887019137       -0.02905028152989
C            2.86517534157359       -1.21145468736474       -0.01747388410661
N            3.38022427889585        0.00616126358738        0.00082034041444
C            2.86099012246257        1.22199612207110        0.01921154581618
N            3.79746395143612        2.19642794179768        0.05465507888833
H            4.76582885069120        1.93084279172059        0.05291804884804
H            3.53499376555045        3.16674582789795        0.05376457237896
N            3.80500842908451       -2.18265464612777       -0.05280904860880
H            3.54588439383257       -3.15386337928438       -0.05200721568326
H            4.77244672581450       -1.91370655766967       -0.05125951808414
