27
 energy: -48.488420144111 gnorm: 0.000635294668 xtb: 6.6.1 (8d0f1dd)
N           -0.92445358487226       -3.74952213744064        0.04750588553613
C           -1.04667665135829       -2.60430429770862        0.02016220385770
C           -1.18787289387872       -1.21110012052510       -0.00398836275491
C           -0.06066673428813       -0.40628052965085       -0.02075759655463
C            1.33959219729057       -0.49478389483442       -0.02027806699769
C            1.45178101717220        0.98220969540230       -0.00818597193255
C            2.80752901268231        1.30757960360005        0.00846553234738
C            3.50345408705665        0.07593594586337        0.00654990623943
C            2.62470349027358       -1.03324088403599       -0.01099917873372
N            2.98551394674937       -2.35008399935367       -0.09269937650599
H            3.91869650713713       -2.59138377437152        0.19590753248772
H            2.27146651541426       -3.02779243331155        0.11945159948157
H            4.57680343440117       -0.00784209720734        0.01747134619782
N            3.37927900409015        2.55009215270996        0.09508809680995
H            2.79109756000890        3.32438521788837       -0.16572965131597
H            4.34317451176918        2.62504114271715       -0.18688289610999
C            0.04888654320074        1.09038131600107       -0.01528985739510
N           -0.83410377712680        2.05441432787340       -0.01883478120263
C           -2.14426915830006        1.77429135446002       -0.02623960450241
N           -2.84972732773885        0.64626281228640       -0.00765537442806
C           -2.49254304278894       -0.62648922940292        0.00632358217958
N           -3.54499070603090       -1.47725034588294        0.04270983195123
H           -3.40543346429846       -2.47207012452636        0.02214738369191
H           -4.47164222206255       -1.09168166200003        0.02283752235711
N           -2.92170100260727        2.88038731008451       -0.06821667603348
H           -2.48194977186747        3.78039068007433       -0.01087234920508
H           -3.91790084812785        2.78278478658500       -0.00222928516684
