22
 energy: -41.848990158599 gnorm: 0.000709066835 xtb: 6.6.1 (8d0f1dd)
N            4.11604148078546        2.14452980027252       -0.54991966872189
C            3.22145659193110        1.45356487303374       -0.33587341690952
C            2.14030143052928        0.58793595549639       -0.08767855714308
C            2.50180837632787       -0.87595744849416        0.01928738145918
N            1.78947436375230       -1.93617184421198       -0.03585711849631
C            0.42275478752828       -2.05642391495863       -0.12226731981900
C           -0.44206401810513       -1.06154123335420        0.07178189785990
C           -1.89700075396161       -0.78714253825563        0.09551127363293
C           -1.62180257791301        0.62000859822473        0.42919736514918
N           -2.78086176634447        1.31205572298949        0.38082586143868
C           -3.64904670465932        0.37482742954800        0.02475302403476
N           -3.13392095468795       -0.93055940768348       -0.23469215806818
N           -4.95001777436477        0.58927212624933       -0.15505395697339
H           -5.52488223811967       -0.16249380754526       -0.49026224252940
H           -5.32276698957101        1.51263491852286       -0.02732891756154
C           -0.25938321000589        0.39560764496797        0.27670334352659
C            0.91604793530086        1.15509466767059        0.08763328134393
H            0.82784110204662        2.23518102584474        0.06552898611952
H            0.09535355725879       -3.07074311086364       -0.30331860778289
N            3.82903719013110       -1.06855221895402        0.22757642816394
H            4.49490395345761       -0.32247936829795        0.12878517252539
H            4.15223205038358       -2.01960157140135        0.26538887275110
