20
 energy: -39.187216988409 gnorm: 0.000749455190 xtb: 6.6.1 (8d0f1dd)
N           -3.26212820635906       -3.22044713893674       -0.00054875729043
C           -2.51735601244232       -2.35085887552936        0.00161253313251
C           -1.58985640818604       -1.27127083136448        0.00054862687004
C           -2.18363865845438       -0.00015687982903        0.00035407259042
C           -1.58957153063848        1.27137907395959       -0.00012429145478
C           -2.51721123070866        2.35084752181651       -0.00087460936045
N           -3.26201627496588        3.22030351330351       -0.00101110050582
C           -0.24386157588234        1.64553339958421       -0.00017797014176
C            0.78825777383066        0.72127168466375        0.00049208615657
C            2.23535784255079        0.71939518629747        0.00032515461759
C            2.23562133298446       -0.71934203742964        0.00038771987735
N            3.49116397182968       -1.15957638947635       -0.00101505335287
C            4.18546427710963        0.00048530489746       -0.00187068544226
N            3.49116566630740        1.15997390078868       -0.00097962755872
H            5.25821692644758        0.00051381995534       -0.00285272388788
C            0.78796862626952       -0.72159051214791        0.00075415489596
C           -0.24369137197135       -1.64559210901760        0.00067809890482
H           -0.00120085231362       -2.69888950649435        0.00070689143797
H           -0.00121850962378        2.69881097036401       -0.00071128529930
H           -3.26789445808383       -0.00002225690504        0.00042678371104
