27
 energy: -50.062081599472 gnorm: 0.000451821966 xtb: 6.6.1 (8d0f1dd)
N           -2.38143170063109       -4.02222449409044       -0.01503342350302
C           -1.95686978485390       -2.95371145896690       -0.01064648050385
C           -1.43135282469759       -1.64543029575630       -0.00603121486841
C           -2.36831487031165       -0.60607792764230        0.00203818588682
N           -3.68188464746447       -0.96221425820596        0.01108501108158
H           -3.93466653229433       -1.93512338914016        0.00446405211656
H           -4.40852161914819       -0.26888142180045        0.00901999755429
C           -2.13390063295393        0.82046273825021        0.00419986142155
C           -3.29909224682393        1.61814612059071        0.01111459864954
N           -4.22428065500837        2.30140700031094        0.01532301799881
C           -0.94622124445721        1.55393675453762       -0.00059784556876
C            0.33255961136210        0.93508813231643       -0.00924876525839
C            1.67374672651438        1.36873509883614       -0.01428879768663
C            2.13101372239378       -0.00574334622852       -0.00951030730381
C            3.49379442007274       -0.01692320251347        0.00272008712530
C            4.37776336080644       -1.10035271999994        0.01783832358589
N            5.10452854028134       -1.98960001302070        0.03055530435527
C            3.90224677728949        1.39540376042960        0.00113642582429
C            2.80983238315283        2.21947360090046       -0.00808079390443
H            2.83140384985709        3.29394375257114       -0.01152922790956
H            4.93212769187888        1.70104637443879        0.00746034374709
C            0.71041794177430       -0.46157111304297       -0.00949423732375
C           -0.00143643087752       -1.60089106030418       -0.00910759329752
H            0.50854313517566       -2.55411303805906       -0.01055716871289
N           -0.95853026077212        2.90498580429855        0.00545219529681
H           -0.08476510810816        3.40012056949660       -0.00742224893622
H           -1.82153191145659        3.42121806939412        0.00495691103348
