24
 energy: -40.520108383425 gnorm: 0.000476789642 xtb: 6.6.1 (8d0f1dd)
N            2.88449925638221        2.45448786383011       -0.02116398682553
C            2.06785491761345        1.37080298062034       -0.00202309270522
C            0.67417815000403        1.61565997142612        0.03731760256047
C           -0.21798546496406        0.58249721215679        0.03337078521894
C           -1.61955651095061        0.32165012595196        0.02560094370499
C           -1.36527296196804       -1.12422347321778       -0.02613714151117
C           -2.58798748133532       -1.78063482133656       -0.06278928254598
C           -3.56458592652465       -0.78056572309380       -0.02725814742119
C           -2.98993262358173        0.52108239733390        0.02933955402262
N           -3.69925722842082        1.70626795339670        0.00631331724662
H           -4.65709427517938        1.63724354357691        0.31453096561515
H           -3.21065504595706        2.50978534918368        0.36915854725115
H           -4.62668199045786       -0.95881657539500       -0.04070435663024
H           -2.77977707502135       -2.83729400385565       -0.10691045742750
C            0.02839408753968       -0.88528124549809       -0.00828330821168
N            1.11553390139027       -1.61332736019111       -0.00933791944566
C            2.32265696828947       -1.03346723519591        0.02263395967325
N            2.74494242753094        0.22870278625229        0.00109077164665
N            3.33352748795986       -1.92763584871754        0.07110750344475
H            4.28283781267385       -1.60349911132587        0.07246983973124
H            3.11187540324991       -2.90632555482452        0.05944561790775
H            0.33591629269979        2.64392958304280        0.04853586442031
H            3.87152762524467        2.29790174873036       -0.12178349761186
H            2.51390747218275        3.38018119254981       -0.13214552090793
