22
 energy: -41.841344687090 gnorm: 0.000864141332 xtb: 6.6.1 (8d0f1dd)
N            4.53155132015481        1.02166816874069       -0.13218242913681
C            3.47517878764131        0.57254554244006       -0.09236730211721
C            2.16426999152646        0.05421029607554       -0.05555760500859
C            2.05641719076035       -1.31868696488805       -0.07454527253256
N            1.02882000362239       -2.16273909617863        0.08706319731999
C           -0.24473143589879       -1.91164004701718       -0.00292453772606
C           -0.78046716449194       -0.64898980818104       -0.46494981214129
C           -2.05567637206094       -0.16507117400265       -0.78447975386043
C           -1.57134786542298        1.13015977971229       -0.28182467609902
N           -2.54592223387379        1.69845472281346        0.35923874628927
C           -3.63368141439316        0.88096327264132        0.08064672127749
N           -3.38735688419452       -0.25214582073152       -0.53115289075158
H           -4.61668906858332        1.15919215094454        0.40886129448900
C           -0.16887434416898        0.64323696999634       -0.27315500276994
C            1.09645361556924        1.04421700927501       -0.00197959654000
N            1.40119339585941        2.33067676206734        0.33326923618966
H            2.36178411428512        2.62747267359760        0.30332295092327
H            0.68796134844978        3.02823932235769        0.20857747874990
N           -1.12487254374627       -2.87658893921882        0.30200847618730
H           -2.10879119020942       -2.71918111435971        0.16221960782401
H           -0.79029831837805       -3.76917402655687        0.62169580791989
H            2.99513567935415       -1.86051040392911       -0.15641870228689
