20
 energy: -37.608744771868 gnorm: 0.000969269849 xtb: 6.6.1 (8d0f1dd)
N           -4.16046427892249       -0.25411949152272       -0.19915172111129
C           -2.86278971151203       -0.10325742231949        0.08013891751264
N           -2.23467644832143        1.11945639874628       -0.25068257804990
C           -1.05252543809230        0.96404406633736        0.24768320906163
C           -0.90303716047224       -0.42440867519154        0.70482660245151
N           -2.09689069620548       -1.05685437537727        0.59278296195726
C            0.45541474157486       -0.32470095882480        0.44267258188152
C            1.53787260901646       -1.19568490882428        0.00325759190451
N            2.75907419947979       -0.79619382177968       -0.13425924923980
C            3.23378543516130        0.46650929832198        0.07643990164283
N            2.73673960119483        1.64163038514059       -0.00498882579498
C            1.40915557221135        1.96494390894009       -0.13520952300140
C            0.42412909504491        1.11688167522997        0.18344569813532
H            1.22392161446047        2.99500111206303       -0.40536524249254
H            4.30565185584466        0.44586977190052        0.26404543315439
N            1.21050680026059       -2.46675894699258       -0.28474967114676
H            1.92300373553491       -3.09773819251019       -0.60813421109383
H            0.28140103078073       -2.79939082234288       -0.09435886527925
H           -4.62964840494896        0.47562817322187       -0.70334008421731
H           -4.59455393828994       -1.14782378421626       -0.06116510227460
