21
 energy: -33.347304674737 gnorm: 0.000352115140 xtb: 6.6.1 (8d0f1dd)
N           -3.26580386808774       -1.60877734750373       -0.00159968896777
C           -2.29002498262537       -0.67823638211728       -0.00104913593145
N           -1.06734378991304       -1.22817456018134       -0.00135890709048
C            0.01465018487917       -0.49403428490729       -0.00094450529249
C            1.41610072135928       -0.76652048985161       -0.00110867994963
C            1.69412944182852        0.66628564845725       -0.00034697067567
C            3.06369644580913        0.84515087705925       -0.00027451971467
C            3.61820447034610       -0.45142097915042       -0.00092656277332
C            2.62270670633413       -1.44555714918596       -0.00147010384351
H            2.79802521315894       -2.50578077257260       -0.00201343128772
H            4.67541991202571       -0.65431395796910       -0.00102866395892
H            3.62422796972921        1.76257434503416        0.00020377634277
C            0.29003343215523        0.95169274039940       -0.00016495560901
C           -0.57346995767068        2.02316919665816        0.00047983345829
C           -1.95746021593220        1.84657404500716        0.00044271866216
C           -2.69910107112666        0.68000699723400       -0.00021621981445
H           -3.77533646575808        0.80866984160073       -0.00009618963074
H           -2.54448422294842        2.75822675697291        0.00101002074632
H           -0.17787229445088        3.02909182806481        0.00104686611729
H           -4.23868822355117       -1.36198389377359       -0.00158899904683
H           -2.98902625576118       -2.57521301137487       -0.00226130424021
