23
 energy: -41.587654825108 gnorm: 0.000624459875 xtb: 6.6.1 (8d0f1dd)
N           -0.28676711402202       -3.75063630039100        0.00088030097209
C           -0.44321995596076       -2.61161480310498        0.00056750479652
C           -0.68605284467240       -1.22555786849595        0.00036281121520
C            0.37060112833894       -0.34557102955489        0.00023183855922
C            1.80121385007966       -0.36536801407104        0.00027967676266
C            1.83371048689294        1.10450008341798       -0.00007530791227
C            3.17321243510134        1.44389801672257       -0.00014972632094
N            3.91897691459323        0.32068238089600        0.00013940676569
C            3.12156943964108       -0.76819648890727        0.00040471429690
H            3.55306734690134       -1.75147143918506        0.00066652283218
H            3.65305133095776        2.40449091373152       -0.00040052035114
C            0.40278293051467        1.13280156706150       -0.00012334474815
N           -0.49814341366132        2.06467936382325       -0.00037916546059
C           -1.81440735846262        1.77793111142199       -0.00036303849160
N           -2.56535471798088        2.89821433722459       -0.00067184800962
H           -3.56844665800011        2.87414966294536       -0.00058030188327
H           -2.08164050204010        3.77928094802901       -0.00078521328143
C           -2.49197924042956        0.54698409226447       -0.00010970767799
C           -2.04988332163128       -0.77543525904580        0.00021268649426
N           -2.99147434692126       -1.74380211012601        0.00043917692162
H           -2.71868249912287       -2.71238710124700        0.00057871111590
H           -3.96878500636314       -1.51329588617371        0.00021316132091
H           -3.57276997555262        0.64760764216441       -0.00018290801618
