22
 energy: -37.867157435031 gnorm: 0.000588868565 xtb: 6.6.1 (8d0f1dd)
N            0.50536249553711        3.81643506118288       -0.00028071815734
C            0.05161691902824        2.76156723842477       -0.00200615345905
C           -0.50837966532946        1.46893243752832        0.00022752664144
C            0.33725715266353        0.35433124489839        0.00068020371202
C            1.71842195275878        0.04176772607168        0.00021684279730
C            1.39874991404729       -1.38747605338247        0.00118943212580
C            2.57388890787179       -2.09595514442480        0.00115077446638
C            3.60941968960803       -1.12188401581504        0.00024043032089
C            3.10210980252230        0.18100863763475       -0.00027805292501
H            3.68114374288810        1.08536708301373       -0.00097306224806
H            4.65734624448657       -1.36556766832828       -0.00000015036920
H            2.72591653378927       -3.15992280421074        0.00166828977092
C           -0.00756525887614       -1.06608723147511        0.00158056183792
C           -1.21735026775641       -1.70034541708072        0.00242024056500
C           -2.44639257400987       -0.99969615089277        0.00264326173870
N           -2.71265799907524        0.31550746186673        0.00173746930238
C           -1.90661166759617        1.34817118834770        0.00063264286915
H           -2.45420754994371        2.28950453153746       -0.00014904358348
N           -3.57724166554098       -1.73069817623411        0.00378979667021
H           -4.45517790168556       -1.23980449135790        0.00393769530875
H           -3.55977355678743       -2.73467666011497        0.00459431795724
H           -1.25262687670009       -2.78106855808946        0.00302829115807
