21
 energy: -38.221893588764 gnorm: 0.000636423466 xtb: 6.6.1 (8d0f1dd)
N            1.31415721479179        0.08850118860504       -0.15192631904993
C            0.17024734743166        0.08012263324077       -0.06634328829473
C           -1.23827310638451        0.04876017250189       -0.00448668539010
C           -1.96266165499212       -0.52809311134275       -1.08237648900171
C           -3.33452377841869       -0.57015063539410       -1.04415199909530
C           -4.06704971676554       -0.04898240372840        0.05251775780455
C           -3.39943159285737        0.52461123219834        1.12881938648765
C           -1.92478008953922        0.56695857390483        1.08202559302953
N           -1.51476059402776        1.16282307612600        2.22533054361140
C           -2.63535666014555        1.43488342872452        2.86311686617309
N           -3.80465427410343        1.07878833932441        2.26175587127082
C           -5.44551423951258       -0.23832940434246       -0.20000465540659
N           -6.39988686174274        0.13769668127703        0.62917278791296
C           -5.56431465924005       -0.89374817228524       -1.48694942861470
C           -4.32080198095526       -1.08996024366721       -1.98571245662080
H           -1.41071357956633       -0.92718468128491       -1.92124449957459
H           -2.63749907200824        1.91944998087756        3.82258354045361
H           -6.10947596896810        0.58580322213201        1.49046719277231
H           -7.37731656248542       -0.00510717890398        0.43331628363521
H           -6.49767887907751       -1.16598270247110       -1.94305681987283
H           -4.07355129143294       -1.55270999549223       -2.92372318222969
