26
 energy: -44.833577889394 gnorm: 0.000769112548 xtb: 6.6.1 (8d0f1dd)
N           -2.27140367170804        3.66190721575985       -0.00575366232733
C           -1.63621297223762        2.70448863936205       -0.00390092279635
C           -0.80138919895726        1.57292337533836        0.00005139171131
C            0.59243537382661        1.75314803305703        0.00274776861801
C            1.42449752371134        0.65520765627584        0.00635845880419
C            0.92817020729616       -0.67650358795568        0.00701919850175
C           -0.44655691189494       -0.90763978140723        0.00965083868594
C           -1.33338799290455        0.28055418060662        0.00269127881941
N           -2.61557279480707       -0.08146770019441        0.00739427405658
C           -2.61021669728857       -1.43042797155790        0.01930748211743
N           -3.77766144473725       -2.10867942521901       -0.01202992032975
C           -1.30939814250271       -1.98785724531164        0.02166844699054
C            2.06056798058263       -1.54976344611008        0.00075878808062
N            1.99673973040567       -2.88708326788365       -0.00092709314028
C            3.23423821789158       -0.77220343365132        0.00060355819538
C            2.87535113379774        0.56682078093896        0.00483301246363
N            3.69581919763017        1.62820964846578        0.01278281558954
H            0.98210886481215        2.76252980338903        0.00030888631584
H           -4.61782655749854       -1.57248179617399        0.11884169303030
H           -3.79299595074404       -3.08940667938942        0.20245284063682
H           -1.09172457941631       -3.03976568516218        0.03266800723565
H            2.83077106202350       -3.44531412687412       -0.03834159340187
H            1.09927109191254       -3.33620459567142       -0.03281914408172
H            4.23620191683301       -1.15888925767043       -0.00312873621858
H            4.69251101282604        1.50824834428050       -0.00793133077213
H            3.31701873754852        2.55766230795806       -0.00539680148495
