24
 energy: -40.578691478948 gnorm: 0.000534674279 xtb: 6.6.1 (8d0f1dd)
N            3.43019909945816       -0.65048428729817       -0.15612452325535
C            2.32680269437027        0.11760857193473       -0.05856780464839
C            2.29191258207641        1.51871428837740       -0.01515531696115
C            0.96241780747146        1.92695729619364        0.04023133135333
N            0.48595527976604        3.17649964909651        0.08513783838020
C            0.12225203974247        0.74525356746626        0.04404142815136
C            0.98609003726626       -0.38134598947171        0.01644104128548
C            0.45095547819600       -1.67764914107071        0.04708028715897
N            1.25781880511630       -2.80267270414183        0.09081818576462
N           -0.85653587468592       -1.91158762325205       -0.00942169054512
C           -1.68565190365480       -0.88443830477692       -0.02507358937505
C           -1.24268709735203        0.55018396857292        0.04142756494073
C           -2.43164660761747        1.27290706242573        0.02326224607649
C           -3.44378654940115        0.31707774591729       -0.04117267179334
N           -3.01135513375656       -0.95607328286037       -0.07636534296361
H            3.30992533205690       -1.60044364653540       -0.46936053484884
H            4.30646455937560       -0.20212987801644       -0.36890448292528
H            3.14947315620201        2.16451477133850       -0.05050330520801
H            1.10141820736580        3.97037398034045        0.07561717456108
H           -0.50872678542011        3.31953121603266        0.08216061116753
H            0.69880761842907       -3.64116218247492        0.18325766626081
H            2.02278998733302       -2.76231040170544        0.74919203822574
H           -2.57458848058046        2.33782193982524        0.05987021216472
H           -4.50346305455735        0.51138183458258       -0.06423965636689
