21
 energy: -33.407314810582 gnorm: 0.000230152668 xtb: 6.6.1 (8d0f1dd)
N            3.53903673143708       -0.78675335465027       -0.00147036684868
C            2.43291849782247       -0.03635548196492       -0.00063342312718
C            2.45158213535436        1.42571131733843       -0.00032992340354
C            1.18239183172106        1.87104332610442        0.00052249415093
C            0.28934930602547        0.71137072563083        0.00080782641673
C            1.10319134028186       -0.46069765576628        0.00006902255628
C            0.53223306129438       -1.76306599687111        0.00012779894503
C           -0.82070249665261       -1.91607259588967        0.00089579052838
C           -1.65357136621067       -0.77427211977953        0.00163310403873
C           -1.07002533973277        0.59225903359036        0.00158839794824
C           -2.20075531403588        1.45171509928704        0.00243666070896
C           -3.28745734533741        0.62245901552910        0.00289478063348
N           -2.96358858172516       -0.71819224387556        0.00241612891701
H            3.47182487133968       -1.78983384001872       -0.00161322960136
H            4.44919937306129       -0.36037991837145       -0.00188354462816
H            3.35549266224045        2.00718255921566       -0.00074406150034
H            0.84859182371445        2.89167577833857        0.00094253320600
H            1.18203233020974       -2.62796123151176       -0.00044150416176
H           -1.28010325061921       -2.89194501732606        0.00096004020944
H           -2.19794751155370        2.52395827292907        0.00266737994698
H           -4.32726389293493        0.90050405106186        0.00356458086481
