24
 energy: -41.389632357473 gnorm: 0.000879413706 xtb: 6.6.1 (8d0f1dd)
N            1.43806446794427       -3.91166722345324       -0.00009794553480
C            0.95010935195298       -2.87071844650165       -0.00006835406598
C            0.34855498042308       -1.60110905116416       -0.00045335735991
C           -1.02268715655049       -1.46721680721264        0.00121868988071
C           -1.60143092347884       -0.18681349953977       -0.00000666264817
C           -0.80691224175031        1.00666135313616       -0.00215671694755
C            0.55888398804350        0.91088850662140       -0.00293632717850
C            1.17048950667015       -0.43569809174182       -0.00282309717915
C            2.51802066467281       -0.22038843785982       -0.00599857923324
C            2.66924431286793        1.21828357237367       -0.00771293748070
N            3.84613944329454        1.86190265637346        0.00566716884643
N            1.51285283980416        1.87037795102423       -0.00606656386550
C           -1.71182890142307        2.13329473049273       -0.00263363681207
C           -2.98313431800863        1.66158959299098       -0.00064256092947
C           -2.94734820971889        0.21933574900479        0.00123021550818
N           -4.03472907644586       -0.56558296565376        0.00354429459811
H           -1.64330152179128       -2.35373348843496        0.00331443040453
H            3.31705907798015       -0.93557335856490       -0.00708245490210
H            3.84968519073641        2.86520923638567       -0.04334186773832
H            4.70834285499298        1.35355946105795       -0.06809262582517
H           -1.39413717325774        3.15809471730290       -0.00428967427989
H           -3.89118119551792        2.23656805344734       -0.00033967475707
H           -3.94032023438648       -1.56586799296555        0.00604401540246
H           -4.95555049645345       -0.16406328121904        0.00605754779718
