23
 energy: -40.875008020252 gnorm: 0.000645358192 xtb: 6.6.1 (8d0f1dd)
N           -5.93359312029807        3.49883337760358       -0.68829846054428
C           -4.71202261056037        3.16730097649842       -1.17707285113627
C           -4.25489447622376        3.46648579166718       -2.49715667210570
C           -3.00345407320577        2.94595794552517       -2.66406786001411
C           -2.61586373509352        2.30433504551412       -1.44417151094365
C           -3.68443331752208        2.47893473236308       -0.50297455361162
C           -3.55381424124462        2.00204153112048        0.82075119908649
N           -4.50301017168151        2.26089312641487        1.77235759613616
N           -2.53446113358744        1.25334805874967        1.22720692578651
C           -1.56639739501365        1.01924306845601        0.35488609605565
C           -1.52443126418597        1.57772447597583       -1.03718443998417
N           -0.39238683206887        1.16002951826416       -1.60996124446905
C            0.18768851400750        0.42062385844097       -0.64611873307663
N            1.36288420968375       -0.18140629131373       -0.83219255350620
N           -0.47456926024597        0.29854787747596        0.53772994502623
H           -6.61700707749707        3.82570750194404       -1.35290370702386
H           -6.29216567678124        2.95734093487780        0.08212589833111
H           -4.83552485033043        3.99809790187718       -3.22903436771222
H           -2.39298266512032        2.99439538811194       -3.54553937339458
H           -4.98101502064324        3.14627500896422        1.72262948341103
H           -4.22219623927142        1.96801007757486        2.69735797387749
H            1.75059658973769       -0.73049137379894       -0.08705893948343
H            1.83140384714562       -0.08445853230471       -1.71432985070412
