22
 energy: -37.141232989055 gnorm: 0.000706951835 xtb: 6.6.1 (8d0f1dd)
N           -3.38838775513976       -1.31513306557920       -0.00045678643299
C           -2.37198775394954       -0.44758107489344       -0.00051721044413
C           -2.49454361655261        0.96191918389965       -0.00013747236102
C           -1.22552091479006        1.51390785148227       -0.00031283079095
N           -0.79884764861429        2.77222396473561       -0.00010705963306
C           -0.26490898061424        0.41305910338571       -0.00082367778791
C           -0.98471317789821       -0.80437573928088       -0.00094539109004
C           -0.28366877096756       -2.01963869375502       -0.00143439572131
N            1.02640971567974       -2.09866584428940       -0.00179276170847
C            1.72576733384262       -0.95302667388191       -0.00168528005213
C            1.09941430298227        0.38807844976352       -0.00118505381009
N            2.03333203210557        1.36718183846688       -0.00118543088246
C            3.19700589281043        0.71460948021770       -0.00165905513791
C            3.08411482309140       -0.68911528811923       -0.00197450283164
H           -4.34058076968270       -0.99375059971887       -0.00023736970340
H           -3.20606427242848       -2.30315907747988       -0.00083164373055
H           -3.42590038408352        1.49673894803225        0.00022399912354
H           -1.42551963183259        3.55815563166078        0.00022933927965
H            0.20378471423539        2.90749927508186       -0.00032838205074
H           -0.80519809739010       -2.97103304561566       -0.00154220134815
H            4.11710866183181        1.27615742137779       -0.00175806247874
H            3.89459153066439       -1.39004022389054       -0.00235998130745
