22
 energy: -37.130611370320 gnorm: 0.000665634235 xtb: 6.6.1 (8d0f1dd)
N            3.46871849754092       -0.11455443576193        0.19817711867404
C            2.27363554647515        0.49163827502727        0.05324534313089
C            2.10278065078382        1.93575230656962       -0.01734556318604
C            0.78756715854517        2.22097040856425       -0.10359666423314
C            0.05494563998114        0.96465555627467       -0.10270996967647
C            1.01851668259705       -0.09973118558182       -0.04278371073462
C            0.57430457473918       -1.45932429512440       -0.05496493432476
N            1.49595296649001       -2.48835683051015       -0.08562077696607
N           -0.68763585298372       -1.79625960210966        0.00468231152793
C           -1.60472770930885       -0.80826160615258        0.02416250439488
C           -1.26524885761410        0.63721080162387       -0.07941572067623
N           -2.40302171952170        1.39234597304293       -0.07096708040024
C           -3.38525589776473        0.52577197753175        0.04199811295973
C           -2.97166655883177       -0.83864331081395        0.11476528430875
H            3.48221540206763       -1.07269190905445        0.50918906524572
H            4.26924105595807        0.45413379425656        0.41978881975195
H            2.92276842300856        2.62994321013846        0.01644496824982
H            0.32070169620409        3.18488292561530       -0.16178797844367
H            1.04677752190247       -3.38882658679247       -0.18631841168038
H            2.27815887373841       -2.35710579674280       -0.70943392843135
H           -4.40530789207338        0.87221161182582        0.06965345929075
H           -3.61552316693342       -1.68966854472630        0.20930596821856
