22
 energy: -37.150509466905 gnorm: 0.000505058764 xtb: 6.6.1 (8d0f1dd)
N           -5.74215429721604        2.72730428103069        1.84805902965890
C           -4.58483450237453        2.05330644103176        1.82531463704400
C           -4.09587479786968        1.23355823848486        2.89843556728152
C           -2.89703610214337        0.70562796719714        2.53041718553924
C           -2.57817691249865        1.17217150972445        1.20420317894724
C           -3.64106574485902        2.01514114285539        0.77185314022284
C           -3.64025193428875        2.63820490804853       -0.48999726331472
C           -2.59600373826786        2.44993368969477       -1.36029875471286
C           -1.53252522407773        1.62723157272063       -0.96984173056757
C           -1.51498727851498        0.96060597411066        0.35824270381331
N           -0.38358138859458        0.24603474756797        0.44844906466483
C            0.21942116969561        0.46970945395518       -0.72691608873798
N            1.39915463604308       -0.07405574270549       -1.04094178877649
N           -0.42526714150416        1.28902033353180       -1.61235811681527
H           -6.02321814773234        3.28288963333799        1.05950993664511
H           -6.34203205585594        2.68415333893335        2.65292297116942
H           -4.61663781379689        1.08328963611479        3.82650016460098
H           -2.27092104037236        0.05047238381011        3.10608950108842
H           -4.47001111960242        3.27153322987540       -0.77733050887000
H           -2.57736668788632        2.91886655702394       -2.33158413333101
H            1.85751387653135       -0.67177354748086       -0.37842678174211
H            1.80669624518583        0.12755425113681       -1.93512191380770
