25
 energy: -40.304611072008 gnorm: 0.000851798977 xtb: 6.6.1 (8d0f1dd)
N            3.49926557185614       -0.32672229289266        0.12285544586529
C            2.30284993109319        0.29580932724789        0.03723410132062
C            2.10155359211745        1.68278850929790       -0.00056866275437
C            0.72714181287666        1.91981488234474       -0.04257080746575
N            0.01762013973358        3.04426280797049       -0.06254640159927
C            0.05610387519025        0.64176233824193       -0.04023137251175
C            1.03150543625057       -0.37478798319628       -0.02400966724774
C            0.65785855534730       -1.73014823346866       -0.04376636123578
N            1.62647468155899       -2.73586114758319       -0.07436230305487
C           -0.69952414890173       -2.05581703017846        0.00463538448800
C           -1.67477122562443       -1.06770531970156        0.02688091157794
C           -1.28968484458591        0.35231404159995       -0.01560836616000
N           -2.35846731730673        1.15885084830264       -0.00867413925117
C           -3.41587469931566        0.31721372951128        0.03325409456644
C           -3.07303394145209       -1.02963126287783        0.05551212969395
H            3.50215278364341       -1.27463851314621        0.46425989436250
H            4.30667230290833        0.23578753719382        0.33908282110252
H            2.87823582380654        2.42397050912917        0.02759273980078
H           -0.98975437875145        2.92479482985825       -0.05911196682381
H            0.43865664316405        3.95639205648785       -0.05614750003157
H            2.37841155118290       -2.56464049905163       -0.72718891642174
H            1.23041663056888       -3.65875527561920       -0.19804857249422
H           -0.98727413390227       -3.09989661515030        0.00509581349044
H           -4.41310260714035        0.72648747575919        0.04586252544604
H           -3.75278077891763       -1.85940877197923        0.08764673343752
