23
 energy: -41.673800027431 gnorm: 0.000890765422 xtb: 6.6.1 (8d0f1dd)
N           -3.31164722837466        2.85617134693973       -0.00182947395860
C           -2.33165517940219        2.25696764425055       -0.00177835376290
C           -1.13962051441248        1.50831367580673       -0.00100062352060
C            0.09225678690844        2.13469525898563       -0.00376514852963
C            1.25908413672076        1.35510545042838       -0.00278001575348
C            1.20048214612842       -0.07119252426753        0.00078833031586
C            0.00366061513743       -0.73294904345330        0.00424268206169
C           -1.22653801443712        0.08691300073230        0.00341401916137
C           -2.25229343536210       -0.81875796259970        0.00908328482325
C           -1.61880925486842       -2.11168429107102        0.01401744620290
N           -2.26697789788394       -3.28344823310036        0.01175531168403
N           -0.28157598073325       -2.05017423008377        0.01068413589272
C            2.58524316863350       -0.49555693487725       -0.00009564477655
N            2.97201047980721       -1.76262744420267        0.00160707080714
N            3.41292622307097        0.55874702275692       -0.00316482396187
C            2.63246220088922        1.65222778477411       -0.00471583136094
H            0.15338731595009        3.21323428357325       -0.00677602561650
H           -3.30932903096822       -0.64041390955510        0.01006480033153
H           -3.26925593173361       -3.31254865184593        0.05709128629828
H           -1.73842653128430       -4.13697474728373        0.04645687291001
H            2.25674303386858       -2.47344194137226        0.00248813752980
H            3.95047677270114       -1.99636345272455       -0.00087171835301
H            3.08913029524448        2.62634796428959       -0.00717129972452
