22
 energy: -37.133270952886 gnorm: 0.000349253216 xtb: 6.6.1 (8d0f1dd)
N           -3.32779367889036       -1.42284673582124        0.00203990237959
C           -2.37013699391941       -0.49322482336317        0.00192739128261
C           -2.55743956627449        0.89556170228626        0.00244774889342
C           -1.30732333458755        1.51126579885863        0.00210769071143
N           -1.03458640583139        2.81584669673730        0.00238349659867
C           -0.28678078048869        0.47571304371829        0.00133325215420
C           -0.95448890267724       -0.77244947367743        0.00123408492994
C           -0.22813733987064       -1.96136530902565        0.00058079381512
N            1.09039269725097       -2.00484720900051        0.00002912634295
C            1.75226319713090       -0.85594015500149        0.00008862406110
C            1.09181639933495        0.49523853247622        0.00075188840873
C            2.15479655077521        1.39510210089953        0.00057699175765
C            3.30261809645517        0.60818528341411       -0.00012573865291
N            3.07124771019845       -0.71899559139894       -0.00041002944436
H           -4.29902134295184       -1.16387041372973        0.00255111715056
H           -3.08203988894251       -2.39722476902970        0.00164669454245
H           -3.50695429313811        1.39732134843638        0.00301833852173
H           -1.76654389352836        3.50489391516480        0.00305193124669
H           -0.07374297337232        3.11311084134388        0.00217984475502
H           -0.72073409230032       -2.92785893540489        0.00050000360789
H            2.12855212473446        2.47013272025690        0.00088498450636
H            4.32014327089314        0.96228909996047       -0.00044390596888
