22
 energy: -41.962535899520 gnorm: 0.000824975702 xtb: 6.6.1 (8d0f1dd)
N            1.33586001539605        0.09642235032992       -0.02027019237019
C            0.19109166029338        0.03052232994453        0.02009852925963
C           -1.21807187055910       -0.02563909689497        0.01868422018590
C           -1.92574894771995        0.61237447804271       -1.00828366515559
C           -3.31174920539330        0.56021789938011       -1.01097645590079
C           -4.03909510069868       -0.11816934791160       -0.00805568745976
C           -3.38546504758252       -0.75818221346522        1.01864073264619
C           -1.91338754038309       -0.70649889829157        1.02726822287461
N           -1.50091664615306       -1.38668853044885        2.10191943672066
C           -2.63495075199038       -1.80194947861959        2.67439427502777
N           -3.78867566282791       -1.46438572969538        2.08411092658433
C           -5.43212855848002        0.05056938832179       -0.35204735980792
N           -6.42010597478158       -0.44929468324488        0.35971544210565
N           -5.57970350739364        0.77328871438922       -1.47578356825443
C           -4.33971935831545        1.08861517849287       -1.88772414737131
N           -4.14297009369436        1.80608788791744       -2.98254553698426
H           -1.37511334848509        1.13350586856529       -1.77888034220601
H           -2.62131070060937       -2.38610340116123        3.57667108242265
H           -7.37944536942840       -0.31035967794659        0.08769410818556
H           -6.17943144820687       -0.97673369540344        1.18791675342752
H           -4.94009269824553        2.11855862910895       -3.51223722617564
H           -3.21380984474101        2.03990202859054       -3.28729954775457
