20
 energy: -38.490012456357 gnorm: 0.000277156021 xtb: 6.6.1 (8d0f1dd)
N           -2.95060396904637       -2.91764070360368        0.00063130558121
C           -2.16547745813559       -2.08204949705396        0.00057839916206
C           -1.15923499353868       -1.09230910788600        0.00055139112515
C            0.18444832075057       -1.47211412932490        0.00143125850642
C            1.17517505538574       -0.49444771523790        0.00142584552541
C            0.89319102632194        0.89908498154685        0.00055031000557
C           -0.42358351398781        1.31980413621545       -0.00034346539231
C           -1.48523590303940        0.27084851263420       -0.00032698983244
N           -2.65854246557720        0.89609399530584       -0.00122757832508
C           -2.33104203485750        2.19711353362485       -0.00177556973378
N           -1.02916900244902        2.50608905533115       -0.00127449262954
C            2.17294041947518        1.54487136252845        0.00085968747894
N            3.16736871770915        0.68966356304402        0.00182933635149
C            2.60699240992209       -0.56415432605892        0.00219901497686
N            3.37892072827554       -1.63355201001815        0.00315378110063
H            0.43360207122364       -2.52434491824360        0.00210338500644
H           -3.08720927375842        2.96091306748368       -0.00252943358751
H            2.35285340669060        2.60452068168085        0.00039430753805
H            4.37932249256602       -1.50662074950767        0.00358791197230
H            2.98893043506955       -2.56174093706055        0.00344353237014
