24
 energy: -40.583544225127 gnorm: 0.000705895751 xtb: 6.6.1 (8d0f1dd)
N            3.40366881979191       -0.56370213957110        0.13720017507935
C            2.24354554408833        0.10420867748867        0.04932644170396
N            2.24536617751974        1.47057707518524        0.02403594542076
C            0.97398477310044        1.84134330505383       -0.03222540077141
N            0.58677774471880        3.11347153097777       -0.06224529685992
C            0.07370539319213        0.69272637018741       -0.04925920855931
C            0.94289419220743       -0.43492126952574       -0.02908004386529
C            0.39747673781090       -1.74399534109439       -0.05413849273210
N            1.22597849427138       -2.85750578137285       -0.06805175119377
N           -0.89623221589889       -1.96170703307964       -0.01753242992112
C           -1.73537399607442       -0.91578222192627        0.01097566524660
C           -1.28570091581132        0.51406014664629       -0.03394839548642
C           -2.44243488704311        1.30689773338035       -0.01570147462502
C           -3.52777733972157        0.45221206228452        0.03729688743225
C           -3.10815077642597       -0.89985435587757        0.05656914145120
H            4.22940748926686       -0.01918066092818        0.32503628609646
H            3.38277379050818       -1.52579103210343        0.43115182216633
H            1.27554650309192        3.84542230412276       -0.04351656533306
H           -0.39316966777193        3.33387269340196       -0.07802942340199
H            0.68940616604212       -3.70834531499015       -0.17513390089413
H            2.00432012944168       -2.80284370404207       -0.70977628449269
H           -2.48815728087156        2.38195065409976       -0.04135668792316
H           -4.55821350092508        0.76584385603711        0.06256038812757
H           -3.75576304010813       -1.75395369565476        0.09789969623553
