24
 energy: -40.578576077830 gnorm: 0.000663853673 xtb: 6.6.1 (8d0f1dd)
N            4.24402845687266        0.52097543273621        0.01926244871884
C            2.93705312985135        0.18960526551190        0.03222602872386
C            2.44417408347850       -1.13867323256676        0.01799064224697
C            1.07016746098961       -1.07389141499294        0.01649724899754
N            0.19292544665464       -2.07665452553108        0.01009802555404
C           -1.10241140491067       -1.79026327913611        0.01507794226996
N           -1.94928647641999       -2.84552985405972        0.04219692811648
C           -1.58796374422896       -0.45724860183840        0.01831266416436
C           -0.66775096116292        0.63712185192943        0.02143225236443
C            0.69440259497831        0.38594956375490        0.02446169299763
C            1.86603577283326        1.11244797354906        0.03375839875754
C           -1.50421836298825        1.80063163752972        0.01380997044066
N           -1.10245915127985        3.08098562458377        0.03276180945900
N           -2.80842758805850        1.47004414835220        0.00880800329797
C           -2.85819438642078        0.13132366983599        0.01190789913892
H            4.94022704345046       -0.19669513889150        0.11400270596597
H            4.52381451732928        1.47907964096114        0.13171544153240
H            3.04622296425688       -2.02581186779631        0.01383719813588
H           -2.93438229684767       -2.70940448616986       -0.08531651312497
H           -1.55458586359366       -3.76431815374835       -0.05481724495884
H            1.98124556685753        2.18148786576958        0.04792533393539
H           -0.13065791180105        3.29758419620790       -0.08932064710944
H           -1.79526516974787        3.80225706839259       -0.06428811580942
H           -3.81769073579237       -0.35723032068336        0.00732293658481
