19
 energy: -33.959774515859 gnorm: 0.000510290677 xtb: 6.6.1 (8d0f1dd)
N           -3.78740408994227       -0.91253493420639       -0.00246748470947
C           -2.55082615614941       -0.41856445852746       -0.00187330286883
C           -2.23000995929064        1.00638818588308       -0.00174112621641
C           -0.87335867334504        1.06303876296554       -0.00106809186824
N           -0.03432159264030        2.13168078806280       -0.00067941045806
C            1.23838394878787        1.89002024883819       -0.00001734794816
C            1.78879830661271        0.57781291372921        0.00032131552918
C            0.92605731762988       -0.57711649309886       -0.00009599172561
C           -0.42354579220275       -0.36703964887595       -0.00080158139689
N           -1.48192765643189       -1.20409489894603       -0.00131587680990
C            1.83191637124301       -1.70155450795835        0.00041294978236
N            3.07614585853829       -1.30757106966757        0.00105901347861
C            3.07243567495019        0.06548150264819        0.00101859972358
H           -4.58907412661422       -0.30726100234910       -0.00295929586107
H           -3.90805542420370       -1.91140710498679       -0.00254924158690
H           -2.94351760196689        1.80515276552675       -0.00211331241425
H            1.89196644701663        2.75378873063266        0.00027865548129
H            1.56408609387149       -2.74149608742172        0.00029552387304
H            4.00682454023705        0.59743401955179        0.00150334399570
