24
 energy: -40.583913710486 gnorm: 0.000859203397 xtb: 6.6.1 (8d0f1dd)
N           -4.37957674380568        0.65842173031730       -0.00601674811351
C           -3.08647682726514        0.24146483432223        0.02855784858123
C           -2.68806526190789       -1.12288186951867        0.01838680055345
C           -1.31434023843221       -1.15915151061450        0.01151316443994
N           -0.50631373999145       -2.22879421460703        0.00885193890730
C            0.79006722432530       -2.03009614954165        0.00661217559889
C            1.36288809913110       -0.75292059750812        0.00576732073255
C            0.53604436091487        0.40789308531096        0.00812460305534
C           -0.83761043482384        0.26066695174717        0.01331504382302
C           -1.96003346719444        1.07626486134322        0.02432677187165
C            1.46254577575054        1.51380023507789        0.00113039197936
N            1.13428345564739        2.80700816054296        0.00290459292203
N            2.73502904866818        1.10309839762385       -0.00322602741225
C            2.69442743347706       -0.25126598586219       -0.00034897750469
N            3.82602065695368       -0.96269752714924       -0.00039792168349
H           -4.58422359274167        1.62153152948797        0.19718027747323
H           -5.10125083281955       -0.01372101731160        0.18876949990248
H           -3.35426669384800       -1.96360538844589        0.01847886787976
H            1.40417242583685       -2.92456800140695        0.00452825645280
H           -1.99148451027910        2.15210615478704        0.03138419908104
H            0.16711717289264        3.07446474107257       -0.02792123876394
H            1.85865598762448        3.50279572837200       -0.02789957552640
H            4.70657057447049       -0.47969088488542       -0.02077355558967
H            3.79779139691643       -1.96571901245387       -0.02057767386011
