25
 energy: -40.295644315646 gnorm: 0.000948715721 xtb: 6.6.1 (8d0f1dd)
N           -4.55850498427004       -0.46349149655988        0.00824129480451
C           -3.23769265198469       -0.15320862346867        0.03769155536396
C           -2.67742115528151        1.10885396271500        0.05495805079826
C           -1.27671543753905        0.95505646595995        0.02845472626953
C           -0.25929216152104        1.87524696224574        0.01391197268609
C            1.09551474753932        1.46813473636963       -0.03033748875381
N            2.08396380446303        2.41521558034061       -0.07603452632826
C            1.38411227986542        0.10627880862165        0.00177525469791
C            0.36123871720937       -0.89067030754352       -0.02486020542535
C           -0.99663119964348       -0.50272861954987       -0.00866206082593
C           -2.19082578732502       -1.15302377309131       -0.00339452176858
C            1.03611138391630       -2.10901590521783       -0.07288931512684
N            2.37831784680541       -1.95762691108904       -0.04689968710021
C            2.60746514417082       -0.64666400666038        0.01575344686335
N            3.87897603083521       -0.15050818584805        0.06644331786216
H           -5.23044086712210        0.25808658920015        0.20415026748961
H           -4.83396954990934       -1.41284985496496        0.19017298069764
H           -3.20974415276674        2.04070628394082        0.08522164782932
H           -0.48015388164221        2.93479477830226        0.01249062149799
H            2.96057110732378        2.13611842402303       -0.48546270328032
H            1.79121394080542        3.35610248555382       -0.28907879324916
H           -2.36303422130651       -2.21278421418265       -0.02406641045057
H            0.61402055656645       -3.09651485832694       -0.11871010040943
H            4.01674128583261        0.67720449594210        0.62601013146906
H            4.57654974677861       -0.86905202221175        0.19967533138891
