26
 energy: -44.040307473569 gnorm: 0.000776241102 xtb: 6.6.1 (8d0f1dd)
N           -4.43651173097119       -0.40404595017029        0.05803982745080
C           -3.13912102888900       -0.00745367573322        0.00398963737900
C           -2.67647741868569        1.32719867485589        0.02978579046675
C           -1.29369907225051        1.24406003817854        0.01418406777675
C           -0.24420546112269        2.16588694219037       -0.00381256722390
C            1.07836187061066        1.74966789903092       -0.03888306380645
N            2.12172180390616        2.67162418959407       -0.04603683383565
C            1.35174040825089        0.36471646843958       -0.02064601889210
C            0.29970982623310       -0.58993011996385       -0.04250785918947
C           -1.01919692962737       -0.20465905604231       -0.02374970663790
N           -2.14821120473619       -0.92684348326769       -0.02892869221439
C            0.95143317920625       -1.87291892516012       -0.03759625708707
N            0.28628554710265       -3.02453792079734       -0.06722387240522
N            2.28063337805805       -1.75221188497834        0.01070547038844
C            2.53199996306580       -0.41855098428106        0.04020112480835
N            3.80814270514652        0.02292134469888        0.11155015793693
H           -4.62263051663236       -1.37001851060372       -0.15049015577045
H           -5.14995929464040        0.26625074788310       -0.16934197923911
H           -3.29463649089103        2.20371438970431        0.05769419926221
H           -0.46517822742425        3.22564223152408       -0.00739466865288
H            1.81772099617868        3.62028716122708       -0.21762004235248
H            2.90631864574294        2.40996018692390       -0.62609736836830
H            0.77071187409501       -3.90361037287504       -0.03145589615523
H           -0.72016425694774       -2.96839515361029       -0.05277046373876
H            4.49635938667276       -0.68597701758724        0.31146046804753
H            3.96293829204898        0.93546600371984        0.50812514275269
