23
 energy: -36.848872552151 gnorm: 0.000573147594 xtb: 6.6.1 (8d0f1dd)
N            4.31172015591415       -0.62972327225371        0.03492402466963
C            2.99145872962096       -0.32264815550829       -0.00749474260418
C            2.50218778463681        1.04106993071369       -0.00689764793237
C            1.14112498186964        0.99447662405375       -0.00997110647316
N            0.25936736752979        2.02440796066351       -0.01369597437362
C           -1.00647873248331        1.72996841293889       -0.01596004919862
C           -1.50638016529040        0.40641231767255       -0.01550053254803
C           -0.59884589792032       -0.70334578946326       -0.01263942828781
C            0.74751103672171       -0.44432711352318       -0.00916903281497
C            1.92932380009428       -1.20593416914689       -0.00745900829487
C           -1.39192047816987       -1.91126043904973       -0.00924612310090
C           -2.70289393959960       -1.56098382703447       -0.00814086717781
C           -2.80285510807988       -0.12029020682102       -0.01074366490108
N           -3.96530207467032        0.55735685213169       -0.02870408104956
H            4.98376434866418        0.09497464064191       -0.14524165575345
H            4.59708588650260       -1.58043469217425       -0.12280502800386
H            3.12564841146336        1.91446964966965       -0.00477956267634
H           -1.68685089612113        2.57618685677920       -0.01892864923696
H            1.99340299602608       -2.27773131879104       -0.00762305563500
H           -0.99032614669816       -2.90751932855740       -0.00666293104711
H           -3.55279426314845       -2.21957820599576       -0.00521854204696
H           -3.96263141269208        1.55944007586838        0.03787433492843
H           -4.83867561677005        0.06909975338579        0.05739406965857
