21
 energy: -37.427743392010 gnorm: 0.000706148861 xtb: 6.6.1 (8d0f1dd)
N           -3.36156190177895       -1.26019615285707       -0.00114903646927
C           -2.30576802355462       -0.45330832919717       -0.00121209978479
N           -2.47705747592220        0.89634593815579       -0.00219250123570
C           -1.25654867274498        1.42718161889564       -0.00201557855998
N           -0.97573560975991        2.71685858341778       -0.00275136042986
C           -0.22711186425320        0.39613336538106       -0.00087323022100
C           -0.92830852688945       -0.83502827160383       -0.00034587620219
C           -0.21379022403330       -2.04360537563023        0.00079259659004
N            1.09613624681029       -2.09552174092514        0.00139097358743
C            1.77946055850864       -0.94154942039936        0.00089468212502
C            1.13984531201166        0.39812975036633       -0.00028271848288
N            2.06120510985256        1.38077883199550       -0.00055541193912
C            3.23376787575358        0.73910283715327        0.00035185259397
C            3.13528390721228       -0.66413012154767        0.00127583485220
H           -3.24516963502129       -2.25795375578826       -0.00042968939859
H           -4.28290521949703       -0.85666298331557       -0.00183595296170
H           -0.00058501775953        2.97935952617883       -0.00250917174507
H           -1.70610864591967        3.40891320389092       -0.00352583984550
H           -0.72216098933228       -3.00117848979415        0.00123828089548
H            4.14672871834466        1.31147798963204        0.00035875009213
H            3.95159675387269       -1.35793299470873        0.00209305413938
