23
 energy: -36.852335603468 gnorm: 0.000501089518 xtb: 6.6.1 (8d0f1dd)
N           -3.51604394608118        0.09539911288421        0.05317896244895
C           -2.29754970202607       -0.51559541342057        0.00939792000776
N           -2.17033546547196       -1.82499127704109       -0.05710584221059
C           -0.83081394758479       -2.08685532917248       -0.07760807639658
C           -0.06318122234938       -0.93557058542401       -0.01819536134786
C           -1.00197847298583        0.14820697418927        0.00431656580421
C           -0.61455832024723        1.46984596497337       -0.03936075932687
N           -1.50118608752053        2.50750836998723       -0.09590833565743
C            0.78987445746960        1.76427827513315        0.00741026859930
C            1.70902634494574        0.76776978690357        0.02716747914734
C            1.32552058095005       -0.65261833464112       -0.00295434997033
C            2.47285829414955       -1.38644988593234        0.00292486497282
C            3.59410969194256       -0.47453060645041        0.03732216787646
C            3.15226953134986        0.80576086851162        0.05236374699849
H           -3.58624463343792        0.93023210899658        0.61465208681901
H           -4.28148693020007       -0.55412201903233        0.16581453632655
H           -0.49554558291706       -3.10629740506331       -0.12716186598317
H           -1.12567504103227        3.41793823111205       -0.30893680594958
H           -2.41563342812737        2.31512040532491       -0.47075722656541
H            1.09134557980711        2.80399069421492        0.01045909539972
H            2.55774761289669       -2.45697621548555       -0.01190615988175
H            4.62180141173519       -0.79372449571561        0.04806696648269
H            3.74038016003531        1.70370218644794        0.07682888840622
