23
 energy: -36.853679238810 gnorm: 0.000696080286 xtb: 6.6.1 (8d0f1dd)
N            4.32407846750378       -0.69150052623939        0.00764298429737
C            3.02904729643761       -0.30982053686503        0.02470392624905
C            2.58763916256549        1.04533439361204        0.01868990162259
C            1.21297766550370        1.03904398349130        0.01126225404819
C            0.26619957750604        2.07869164814666        0.00624129608409
C           -1.07600578904860        1.80106183272989        0.00195135868234
C           -1.50511351173919        0.46001914450206        0.00338173405622
C           -0.58812893824901       -0.62620387659026        0.00729586659535
C            0.78202114319876       -0.38709352505121        0.01133018397209
C            1.91894511723440       -1.17383412454279        0.01876536126417
C           -1.40255086959663       -1.79802903074745        0.00645548958902
N           -2.68909939987480       -1.52012267644835        0.00282360428914
C           -2.78038148117961       -0.14717550158186        0.00064213754529
N           -3.98437931322564        0.43639402897691        0.00423604888062
H            4.56163195652522       -1.66137391983582        0.11578905434911
H            5.04920252888389       -0.00606944504496        0.12096201660698
H            3.23468668572014        1.90265950083061        0.02076027421177
H            0.61364489083064        3.10222316888745        0.00560512270271
H           -1.80137440753355        2.60415474024340       -0.00231871107312
H            1.96318936674290       -2.24638250145146        0.02112147194157
H           -1.06766531410137       -2.82011930565952        0.00759626515321
H           -4.06959968902906        1.43590887546270       -0.02812346088579
H           -4.80368551057511       -0.14444656822484       -0.02019959098197
