20
 energy: -37.693358619866 gnorm: 0.000573151580 xtb: 6.6.1 (8d0f1dd)
N            2.50476223444941        0.09541937012209       -2.86144708767998
C            1.42105416836596        0.87526722850521       -2.95457491450029
N            1.25632976557995        1.66705764935298       -4.06275421531247
C            0.09664755460117        2.26562876530395       -3.93690557506031
C           -0.56099509605787        1.91182810389645       -2.71547734977920
C            0.34396111447300        1.02265765287891       -2.04965495754171
C            0.04310242757101        0.52455503895642       -0.76477621484842
N            0.92973574774870       -0.19921219605620       -0.03153191010196
N           -1.15382433824094        0.69877142758762       -0.20185400168309
C           -2.01978414601928        1.48008560776570       -0.80415216736496
C           -1.75681118556121        2.20566753430368       -2.09977742235691
N           -2.85961421742252        2.88167343271801       -2.40709646378399
C           -3.69241739861365        2.60531228824223       -1.39139098883257
N           -3.26916003626552        1.76958555290004       -0.44107627592866
H            2.52234073400055       -0.67354416219436       -2.21300057263103
H            3.09644893351177        0.05112630899032       -3.67630385478553
H           -0.26055928348595        2.95337292617161       -4.68035763738472
H            0.63157197395031       -0.38372563685467        0.91471469044931
H            1.91546382294018       -0.06167611698678       -0.17906610148227
H           -4.67652277552505        3.03781922439680       -1.35245697939160
