25
 energy: -40.308581969625 gnorm: 0.000369126062 xtb: 6.6.1 (8d0f1dd)
N           -4.39007609853995        0.67192683792011        0.02719442890008
C           -3.10086062895396        0.22259626745780       -0.01887668090506
C           -2.72275166016337       -1.13987027406195       -0.00809448316574
C           -1.34251487236820       -1.19761614496596       -0.00445180401466
C           -0.45047382246171       -2.27833240002100       -0.00259562114629
C            0.90905990981478       -2.07141946714451       -0.00517435471663
C            1.39676835299493       -0.75761496114740       -0.00851810004206
C            0.53052360764115        0.36486793737869       -0.00977595176135
C           -0.84855043887222        0.20056853529406       -0.00990472910066
C           -1.95568983477982        1.03640980492498       -0.01914304447556
C            1.41149444889003        1.50409796223858       -0.00628396549631
N            1.03666181111737        2.78476828944499       -0.00810924653074
N            2.70342656834337        1.14826429527014       -0.00537418398327
C            2.71042920841344       -0.20547122647225       -0.00678087118982
N            3.86758912164150       -0.87729233837506       -0.01247968507441
H           -5.11644969950213        0.01732112929581       -0.20975400630140
H           -4.56067825089652        1.63115863086226       -0.22387329318002
H           -3.40430607160553       -1.97050731245931       -0.00534230143281
H           -0.84692343335736       -3.28431386186498        0.00099714548330
H            1.59236490323784       -2.91047658283455       -0.00357860482461
H           -1.97086935808582        2.11247754323245       -0.02829429210359
H            0.06081742187141        3.01498445864257        0.03333016388466
H            1.73667938046640        3.50452276567596        0.02458248422704
H            3.87379521413491       -1.87976566224695        0.02631901606951
H            4.72978281441941       -0.36334255654453        0.01791790728039
