21
 energy: -37.429235569717 gnorm: 0.000409484145 xtb: 6.6.1 (8d0f1dd)
N           -1.54951080036477        3.50725360067243       -5.26545492868591
C           -1.34559987249419        2.85688505098484       -4.12634119208498
N           -0.19476413429508        2.16371462175185       -3.91283471203698
C           -0.35231831928260        1.66420446352946       -2.70111020543802
N            0.49243553694745        0.90814907227964       -2.02800188829701
C            0.11634162439920        0.51625063219093       -0.80653914197739
N            1.00272276221668       -0.25055415678918       -0.15596257021210
C           -1.12861154336686        0.87294201532606       -0.21696859790272
C           -2.06304792508922        1.69431293373272       -0.93021337743190
C           -1.70526334492358        2.11395873037422       -2.18982194459631
N           -2.26813228674997        2.85641540342577       -3.13651845049512
C           -3.20225286372681        1.87620203691374       -0.08881839616384
C           -2.97113451722388        1.19613709403277        1.08330400982537
C           -1.70567527062348        0.57706673413866        1.01934211084963
H           -2.40852119508654        4.01131581788873       -5.39690303655325
H           -0.83953552242334        3.48296992766802       -5.97574088474131
H            0.81658959485419       -0.59601308085396        0.76769264396691
H            1.86664403369853       -0.46989043584177       -0.62230484321999
H           -4.07188841875099        2.44808605111762       -0.35058402297807
H           -3.63882268584982        1.13660256956360        1.92331375480971
H           -1.27465485186498       -0.02032908210616        1.80451567336333
