21
 energy: -37.417278483490 gnorm: 0.000562643655 xtb: 6.6.1 (8d0f1dd)
N           -1.49281310956554       -2.76090956468671        0.00082296326473
C           -1.61452798136785       -1.44266439167844       -0.00044959019136
C           -0.48919853257335       -0.52681769012762        0.00233914969234
C           -1.07876463365443        0.77234487276166        0.00130197190387
C           -0.23375913428502        1.92095113635374        0.00377915296904
N           -0.74549168491580        3.16875531183358        0.01794574994987
N            1.08979773276611        1.82942781111241        0.00014005490859
C            1.64772810880383        0.61973714367980        0.00024668018519
C            0.86984154773438       -0.66222736622788        0.00432981636649
N            1.68921332857618       -1.72458983559905        0.00218159747943
C            2.92248725877468       -1.19832631649113       -0.00402146086195
C            2.96735101120376        0.20555904239815       -0.00709414842337
C           -2.45757194548002        0.53387694454398       -0.00300928434413
N           -2.77414246210785       -0.77297679817591       -0.00370384233043
H           -2.30799504911009       -3.35059337183237        0.00069189172934
H           -0.56193528258685       -3.14961541460079        0.00247487966696
H           -0.10325075031827        3.94123700624937       -0.00317773168596
H           -1.73487866756417        3.32831659531618       -0.01593606703881
H            3.77359727661143       -1.85932943797193       -0.00668847872942
H            3.84979971564737        0.81209152628996       -0.01206634999232
H           -3.25506841828849        1.25736798185300       -0.00666809781817
