23
 energy: -42.461169435833 gnorm: 0.000725834242 xtb: 6.6.1 (8d0f1dd)
N           -4.11539001587304       -0.37841127215126        0.00187953198846
C           -3.00735858820981       -0.06861510405709        0.00176989045182
C           -1.71134799125706        0.43376425650270        0.00240050550758
C           -1.41680774470184        1.89051028990064        0.00357238277426
N           -2.36614404884619        2.82212283018683        0.00419670911775
N           -0.13148289727742        2.14516044497583        0.00390270124757
C            0.49814565999987        0.93791852754927        0.00304381532680
C           -0.48180870973736       -0.17174734993848        0.00206014943768
C           -0.04927558113546       -1.53200184331559        0.00105602697507
C           -1.00641247759458       -2.56771892664679        0.00042327818147
N           -1.77610056529932       -3.41815253797432       -0.00076631511361
C            1.29666613349664       -1.80725551486250        0.00096152571445
C            2.23537371386216       -0.75046184796665        0.00187498227675
C            1.82565573772221        0.63317506495677        0.00293426153874
C            3.03247400802219        1.43618058173674        0.00365456657574
C            4.09422126249309        0.58731335856185        0.00311798079369
C            3.61981570313336       -0.76331749675256        0.00204203884411
H           -3.33785050585850        2.56097653281433        0.00387291491836
H           -2.10095800764820        3.79233438920147        0.00500665805936
H            1.64064121672677       -2.83146240899417        0.00029869011863
H            3.04122205483909        2.50881258853010        0.00449197842269
H            5.13302201042504        0.86122232620047        0.00343512707037
H            4.24719960061833       -1.63682362885765        0.00144491067220
