23
 energy: -40.868102812187 gnorm: 0.000898561973 xtb: 6.6.1 (8d0f1dd)
N           -4.19340830526056        0.47468992352125       -0.03622393689047
C           -2.87792125551433        0.21735409681617       -0.03255603123994
N           -2.43961248966595       -1.05494052032379       -0.02392265503132
C           -1.11006614814249       -0.97451449823480       -0.01247334800038
N           -0.29581007260296       -2.00382201980116       -0.00455574761193
C            1.02698095379646       -1.77772967087394        0.00307350666096
N            1.79625132277465       -2.88328182104754        0.01938196822646
C            1.57050112732872       -0.48023404645573        0.00149671404810
C            0.70717713793284        0.66043870193445       -0.00521030150556
C           -0.66932907311122        0.46658662788098       -0.01339092170430
C           -1.83476346016736        1.18983392293920       -0.02592332229065
C            1.58894711101658        1.77596541355213        0.00068225236510
N            1.26183642396250        3.07696104584920       -0.01767918232051
N            2.88639765996055        1.38028279158829        0.00772063853003
C            2.87737102696882        0.05267484601829        0.00776255031327
H           -4.53976870983706        1.41452586422779       -0.09397346604593
H           -4.83005130566910       -0.30122659532682       -0.07687846804841
H            1.33476061677933       -3.77566825691936        0.00138145891747
H            2.79633243073163       -2.82302341912202       -0.00305844090588
H           -1.98186610271686        2.25334387053857       -0.03407639934031
H            0.30190250430351        3.35458494754724        0.06871397709022
H            1.99570264418459        3.75869493779478        0.05706189880112
H            3.81044392654773       -0.48379801180319        0.01401545268286
