18
 energy: -34.242716803135 gnorm: 0.000363586459 xtb: 6.6.1 (8d0f1dd)
N           -3.51036030637012        0.77059094020355       -0.10284667426630
C           -2.40244750348556        0.04684348764927       -0.02580575302599
N           -2.47665288598599       -1.32263380815686        0.01472980693756
C           -1.24610481135313       -1.77347735650046        0.03209444708766
C           -0.27871173840473       -0.71164485576939        0.04094499294846
C           -1.04844300781600        0.49230973223024        0.02893913321536
C           -0.42414817768623        1.73933488963257        0.10224239059580
N            0.88051586949122        1.87081635351529        0.02511777529309
C            1.63639681506439        0.79177383501689        0.02366102704390
C            1.09094284848837       -0.60910406355299        0.12861687340747
N            2.12676052614761       -1.44175488633701        0.04743721632512
C            3.18171715390133       -0.63477918642259       -0.07668601219230
N            2.94556084607288        0.68298259089144       -0.15366296328115
H           -3.47729170759061        1.77525811158241       -0.12740185364295
H           -4.39606163496845        0.29199533577348       -0.13497381732077
H           -1.03965092470103       -2.82518106054408        0.10686709918632
H           -0.98392934636108        2.65777227816087        0.22546333381866
H            4.18168261325726       -1.02494568787252       -0.13329941592997
