24
 energy: -40.597269897775 gnorm: 0.000726836461 xtb: 6.6.1 (8d0f1dd)
N            4.36330281922431        0.57511520158383       -0.02408214889366
C            3.05635793683514        0.21362858284540        0.01860444880120
N            2.71080379780368       -1.08401935869406        0.00863719029903
C            1.36905094003520       -1.09815090480994        0.00413408955866
C            0.53115394669471       -2.20295970027457        0.00218618892263
C           -0.84771526878565       -2.03357535118799        0.00487454791462
C           -1.37472587004308       -0.75037375585754        0.00843829633114
C           -0.55516821048637        0.40830570313682        0.00970610394766
C            0.83553080271067        0.28201767326301        0.01122072379383
C            1.94656030857474        1.09799247016659        0.02156771209204
C           -1.46448215379508        1.50387737576058        0.00439577830517
N           -1.15166744355599        2.80145615093907        0.00501348465870
N           -2.75880718288995        1.09859430922796        0.00358165543733
C           -2.72434196457878       -0.23686506418077        0.00645035001730
N           -3.84380073782318       -0.96555537477256        0.01168206947424
H            4.61699284507603        1.50967020629142        0.24495811637919
H            5.03244136951239       -0.15710153933443        0.14241239881821
H            0.96262773966540       -3.19194345820485       -0.00223278711854
H           -1.49554828880697       -2.90025123130665        0.00238945781735
H            2.00885029111411        2.17058831717886        0.03127977689153
H           -0.18812256961716        3.08020420343627       -0.03713123628197
H           -1.88572422473406        3.48634362403345       -0.03292545665661
H           -4.73343537645907       -0.49922911816022       -0.00712416739911
H           -3.79834360087110       -1.96787185247967       -0.01257306920992
