23
 energy: -36.859586058154 gnorm: 0.000384582005 xtb: 6.6.1 (8d0f1dd)
N           -0.93860026564994       -2.90904277276766        0.00856874337177
C           -1.34389235428353       -1.63922980012424       -0.00370350583883
C           -0.45111816947053       -0.54701276058961       -0.01074062367224
C           -1.21091963000019        0.64893202607575       -0.01875453088161
C           -0.58928739028269        1.89493925383902       -0.02315558812209
N           -1.29403311415229        3.05986078573862       -0.07687894140397
C            0.83482167138090        1.95505001708372       -0.01998436590986
C            1.58654217064921        0.81401646793522       -0.01071296008362
C            0.94483696771359       -0.51588539444877       -0.00603246855066
N            1.83079726204218       -1.48957315225714        0.00373754334658
C            3.05667723235219       -0.85606197475735        0.00571816344858
C            2.97594494749251        0.50870212471697       -0.00194038749785
C           -2.59835727925677        0.25100320570596       -0.01617303725091
C           -2.67721534279793       -1.11030784138452       -0.00780853865224
H           -1.58142707938572       -3.68107876105954        0.01481634768860
H            0.06146723141650       -3.05906801034533        0.01014426412107
H           -0.81638863152271        3.92544524253844        0.10392451687704
H           -2.28472080071725        3.03528764491781        0.08547991773328
H            1.30488701188746        2.93042233634815       -0.02440079362535
H            3.94829068645787       -1.45994085379452        0.01316206496661
H            3.78991930312892        1.20707121669407       -0.00238609540703
H           -3.43945338793060        0.92251727934482       -0.02314657415119
H           -3.57294568247115       -1.70352083060989       -0.00451845810607
