24
 energy: -41.398579928187 gnorm: 0.000522119793 xtb: 6.6.1 (8d0f1dd)
N           -4.45531773630266       -1.10540481226723       -0.00398955337729
C           -3.37806129958836       -0.69520881900755       -0.00370440945052
C           -2.10737090954231       -0.14173000703864       -0.00332038259270
C           -1.83926843836731        1.27043699310483       -0.00444205193487
N           -2.77823243004028        2.22527612410784       -0.00521224492577
N           -0.52701098373804        1.56139050353452       -0.00406258149541
C            0.09625262517769        0.36907418730398       -0.00271471702621
C           -0.84838353241841       -0.75662151546174       -0.00221237884287
C           -0.39235807113680       -2.07220657332682       -0.00096316774269
C            0.96795375367650       -2.33274978977186       -0.00020394176518
C            1.88217295832499       -1.27722059126500       -0.00064854681873
C            1.43971003454551        0.06790257805972       -0.00187608043475
C            2.60174947312564        0.91796104090424       -0.00196327507813
N            2.50837924515878        2.24197776623107       -0.00294605282421
C            3.73842402513131        0.07867024106614       -0.00082285990881
C            3.30812803359648       -1.23328869509216       -0.00004552226502
H           -2.50557583937416        3.19147033940596       -0.00789732318724
H           -3.75059632818627        1.97218504391782       -0.00747620526846
H           -1.10599217515493       -2.88302667957473       -0.00060194601197
H            1.32140832565805       -3.35378035903971        0.00074754419954
H            3.31805367257157        2.83875200203003       -0.00287638237481
H            1.57477528151911        2.63109302751103       -0.00360283523744
H            4.75841459114482        0.41448680730067       -0.00060404795052
H            3.94855414911909       -2.09784093653243        0.00088078501405
