25
 energy: -45.122098581683 gnorm: 0.000616754690 xtb: 6.6.1 (8d0f1dd)
N           -4.53137755165607        1.56417105677943       -0.03597306345265
C           -3.50701379564224        1.03668673298183       -0.02487371060776
C           -2.32515683919066        0.31054513845605       -0.01691467730236
C           -2.27647495033678       -1.13161037198335       -0.02545041074660
N           -3.36333507433192       -1.91879694857965       -0.01854531958709
N           -1.03624979458236       -1.62624561354034       -0.02384602691664
C           -0.22786313255019       -0.54242429947775       -0.01284749611455
C           -0.99147364462098        0.71835771674942       -0.00869924573419
N           -0.43811645635080        1.93160494022269       -0.00015572605080
C            0.87901918650688        2.00488212263955        0.00494399754693
C            1.70785949298858        0.88477934488472        0.00148951921584
C            1.13393131653267       -0.41611025603951       -0.00753686504269
C            2.21267572295068       -1.38473053186228       -0.00826038449940
N            1.96310376503851       -2.69370788886160       -0.01633594443395
C            3.41180700196972       -0.68421352300026       -0.00029213340627
C            3.13046617650152        0.69538466436000        0.00539136044284
N            4.03604207052775        1.68163898404936        0.01538573078527
H           -4.27636593395245       -1.50378583698705       -0.07899122631422
H           -3.25660060130427       -2.91495795482258       -0.08187710980002
H            1.28048282174523        3.01202067866535        0.01228904510102
H            2.69602418270053       -3.38093518666642       -0.01304764532520
H            0.99315922557777       -2.97304030908689       -0.01881586052178
H            4.39702550430068       -1.11191963160444        0.00144760165314
H            3.73655128757515        2.64026272856141        0.01220918980927
H            5.01964286240314        1.47736504276221        0.01092237200176
