22
 energy: -41.949298954811 gnorm: 0.000368530603 xtb: 6.6.1 (8d0f1dd)
N            4.46382657193685        1.11327519386895        0.00762967572496
C            3.38022900721980        0.72517891689791        0.00732356047617
C            2.11278504396515        0.15680367244264        0.00609032914973
C            1.88179416663735       -1.27933347300915        0.00775067399883
N            2.85644755518655       -2.18976561205601        0.01044697822324
N            0.59004429427091       -1.60925222214222        0.00638358639800
C           -0.07486566597514       -0.43650095365422        0.00380308669441
C            0.84823598501892        0.72551773461086        0.00343002827159
N            0.45823015189905        2.00501827305936        0.00106462093101
C           -0.82894544819314        2.25640084969515       -0.00113152547279
C           -1.80403641437607        1.24619510345855       -0.00105691549025
C           -1.40670488473356       -0.12680618171027        0.00149900881476
C           -2.64936964071907       -0.86965217746523        0.00085031990626
N           -2.74440240616696       -2.18953045535638        0.00268539812387
N           -3.70428065297226       -0.03639379290137       -0.00185676193413
C           -3.21281060390888        1.20718075514555       -0.00299796575709
H            3.81852567236877       -1.89700451143678        0.01132401617835
H            2.62239353185396       -3.16700940784507        0.01144251062052
H           -1.10603462410830        3.30257712544836       -0.00301093075524
H           -1.89658169571677       -2.73442372697091        0.00468751304325
H           -3.64987824837979       -2.62926649411770        0.00208081847365
H           -3.88735286100751        2.04488342133803       -0.00518485121917
