27
 energy: -50.145297965271 gnorm: 0.000448885801 xtb: 6.6.1 (8d0f1dd)
N            5.20721476252730        0.18491398233274        0.07133276741957
C            4.06266110009000        0.09931374233124        0.02391619632525
C            2.66459436794658        0.09073827933746       -0.01961873234145
C            1.87720675459686        1.33368491335529        0.04038700307700
N            2.44741808216413        2.53609055992392        0.18659538770125
C            0.53119671518025        0.98777972835224       -0.04670673689476
C           -0.65113647103038        1.78569244254579       -0.06352107767588
N           -0.56300092173226        3.15642946658919       -0.10943688661872
C           -1.88861973717213        1.14558105338764        0.01080899396467
C           -3.06263815884265        1.91833936014258       -0.00027107122288
N           -3.99762019946908        2.58674982084567       -0.02216452137282
C           -1.97478473458918       -0.26988718244951        0.04673873050646
C           -0.74802805050488       -1.08033265488593       -0.02388240137571
C            0.46143617664409       -0.44814772936854       -0.07860288008844
C            1.80984305028556       -0.96712071942538       -0.08805202045764
C           -1.15604876777730       -2.45294604386034        0.00380253044043
C           -0.29018815857602       -3.54419894129122       -0.04378584065784
N            0.44686297325962       -4.42662159542238       -0.08372511914629
C           -2.54035016663227       -2.46445806484583        0.07903296517485
C           -3.04064927129486       -1.13609539159351        0.10571000836848
H            1.89206004015339        3.32578887378369        0.47293108089343
H            3.44327804717491        2.57863440193821        0.34348646654202
H            0.17648805830936        3.54709232291654       -0.67218604498053
H           -1.44853172898082        3.63529353347794       -0.20497708462975
H            2.06514425530814       -2.00944063765144       -0.13013830847183
H           -3.14874234569986       -3.35077115561953        0.11300320796092
H           -4.07885473483821       -0.86855172024627        0.16221772636009
