27
 energy: -49.355681433954 gnorm: 0.000849456621 xtb: 6.6.1 (8d0f1dd)
N            5.30072209502640       -1.34280239529732        0.02194670133649
C            4.17490145281151       -1.10617639483774       -0.00853543071995
C            2.82619785439960       -0.75285918168618       -0.02979211984863
C            2.36027430617971        0.58297278208222        0.04875440918781
N            3.15971090573570        1.67642869276899        0.15028516124757
C            0.93389592909350        0.54679438737669        0.00414086004065
C           -0.00632027103340        1.57753176392189       -0.03724906885258
N            0.34998219561369        2.88628312153787       -0.10412037249243
C           -1.39899852768305        1.24686321359066        0.01099952324054
C           -2.33558168194150        2.29376302875905       -0.00051395403574
N           -3.03979613677659        3.20225358915163       -0.02196822806272
C           -1.80059754416314       -0.07956185910220        0.02268015206643
C           -0.80646778862696       -1.18349008063806       -0.02616480575003
C            0.55259660086158       -0.83679414691155       -0.03841522503682
C            1.71599378936350       -1.61055639782057       -0.07712730213560
C           -1.55184956804106       -2.33112979866023       -0.02855619319064
C           -2.91909579143521       -1.89431672885956        0.01695431698109
N           -3.99425208883057       -2.68677814590125        0.03004296228531
N           -3.04941556341062       -0.55914067991191        0.04607554986116
H            4.14193857258823        1.48827579177288        0.29250519537682
H            2.80207849077073        2.48587334955702        0.63228682175428
H            1.24403210810377        3.12161436872900       -0.50144141093659
H           -0.39343520166498        3.55617282898868       -0.23823049036861
H            1.76496320247052       -2.68238198607613       -0.12719090399410
H           -1.22363322318868       -3.35060460778833       -0.05667393444005
H           -4.90408946193820       -2.26060922876522        0.06178778124159
H           -3.90366409448445       -3.68630076158032        0.01114436634484
