29
 energy: -53.609676311573 gnorm: 0.000937092521 xtb: 6.6.1 (8d0f1dd)
N            4.36576747668536       -0.94325797125274        0.00991550549090
C            3.21569110600831       -0.90928031886833        0.00788151056886
C            1.82348003607099       -0.97235649047814        0.00468091616583
C            1.10106885561649       -2.18281711921635        0.00463415296752
N            1.62952208883869       -3.41386328242447        0.00677062418320
C           -0.30338870039880       -1.89022502603333        0.00220290631390
C           -1.27850634726983       -2.87122435736418        0.00135169699715
N           -2.08189936862013       -3.70289473550381        0.00191316776688
C           -0.45798310604997       -0.49451292310242        0.00111219329017
C            0.89100745396198        0.08751166916126        0.00191394735306
C            1.08699981609789        1.46034165296588        0.00063795548223
C            2.37473016023751        2.02392481505671        0.00224529625742
N            3.38685316921702        2.56881834090514        0.00572874938789
C           -0.03438213672777        2.34882846861698       -0.00058332539342
N            0.18127636268072        3.68098339263141       -0.00613550281959
C           -1.31329309535093        1.79366169829827       -0.00003577250888
C           -1.53849255992180        0.38192817513669        0.00038883546121
C           -2.96298253881057        0.19229210182535        0.00089927274094
N           -3.63328441501448       -0.95762537681855        0.00169605693397
C           -3.57040581774620        1.47683451376998        0.00092729484810
C           -2.59027695839463        2.43184325965356        0.00051622137230
H            1.03629310344609       -4.22544153670945        0.00630935611775
H            2.62888723503164       -3.52755264070881        0.00836875539500
H            1.12216611640847        4.03597103517272        0.00748366723068
H           -0.58901904896069        4.32214490367204        0.01091485609554
H           -3.16326116353959       -1.85242060214299        0.00165581225558
H           -4.63940370437759       -0.94303874537530        0.00238771108494
H           -4.63087468098303        1.64591780763051        0.00121433389354
H           -2.75851962393513        3.49407648810233        0.00029791376733
