28
 energy: -53.882814837817 gnorm: 0.000701903746 xtb: 6.6.1 (8d0f1dd)
N            1.42540500255689        0.09843581144426       -0.11398251961671
C            0.28296526615352       -0.00969009336377       -0.04570958135122
C           -1.11168802928114       -0.06203151165793        0.01895143147038
C           -1.94353394006905        1.12191960452102       -0.07959440890631
N           -1.44231809441986        2.35851315706455       -0.26528855356509
C           -3.28220138869246        0.71376594097221        0.03117176300946
C           -4.48679584140308        1.45734566827147        0.04777325763014
N           -4.47751184422771        2.82195243492703        0.04870416532943
C           -5.71153242900903        0.76261427022560        0.03090172968867
C           -6.90923526599329        1.49849849270689        0.03580323791080
N           -7.85086812848051        2.15754359703526        0.05170711982404
C           -5.72617171446685       -0.64106517420730        0.06066218715090
C           -4.46866874744065       -1.41405210364144        0.13745266191793
C           -3.27757396062990       -0.72064581313221        0.12753974258001
C           -1.92502670743686       -1.16539939006755        0.13821626250844
N           -4.70418055451971       -2.73234255874509        0.18688500782020
C           -6.03254782675234       -2.86821556500904        0.15051747535391
N           -6.62992457255341       -4.05760049817450        0.18505723137101
C           -6.72963956701488       -1.59740797941137        0.07206914869871
C           -8.11338312230640       -1.47964314361743        0.01967254916095
N           -9.26329558888671       -1.46816246779805       -0.02243944482435
H           -0.45177051328248        2.43380591000777       -0.44294340824637
H           -2.02931295361083        3.08027987257756       -0.65029285143416
H           -3.70540606662069        3.28898701389203        0.49528670828964
H           -5.37652691699467        3.27002794410971        0.15975475302923
H           -1.61428594933967       -2.18937454670379        0.21615651880198
H           -7.63335372049753       -4.12295581238898        0.15843026045500
H           -6.06611682478260       -4.88836305983859        0.23808755594379
