31
 energy: -57.055718548903 gnorm: 0.000942155937 xtb: 6.6.1 (8d0f1dd)
N           -4.36028676559309       -1.58540416625491       -0.09208076601730
C           -3.38833640360122       -0.96928750164062       -0.06496362423047
C           -2.27083562431137       -0.13865819454997       -0.03491177943224
C           -2.35590493371396        1.27780873142880       -0.01882082272623
N           -3.49678885853487        1.98545225446203       -0.02874314991585
C           -1.04440289160044        1.82168480031402        0.01005818356631
C           -0.78718476485531        3.17948884646049        0.03277726851992
N           -0.58688502725475        4.31889309152065        0.05379324004213
C           -0.12336590677795        0.74508618759991        0.01317228754973
C           -0.91063482162737       -0.48858675623078       -0.01373211641922
C           -0.29645094156376       -1.74179760726182        0.01648578529902
C           -1.04991460646716       -2.92764768352371        0.05682900826988
N           -1.58317410608007       -3.94497311142325        0.10762704921816
C            1.11660731277827       -1.84419542796124        0.05501884095198
N            1.71615134281394       -3.08626219916100        0.10226288183841
C            1.86052415728241       -0.66655100759424        0.00236745904764
C            1.25451638156159        0.62604774562942        0.02170926379469
C            2.33821498631291        1.59485446570861        0.02365491071456
N            2.21558117200545        2.91945705371391        0.05762834734256
C            3.54734320026810        0.89678736936268       -0.03261796455082
C            3.28312468137445       -0.47003758009757       -0.07623950044711
N            4.20278518644246       -1.45412651163646       -0.17978045638004
H           -3.47508912638280        2.98979613193394       -0.00962430394578
H           -4.38077772076924        1.50712275226807       -0.04269630194765
H            1.06683667325331       -3.85277992227517        0.22249004373429
H            2.53274977835655       -3.15810150981265        0.68986612955042
H            1.31238631264676        3.37339182985476        0.07124117939451
H            3.04097432299624        3.49414663051868        0.05474684620177
H            4.52213881703753        1.34604821419078       -0.06857472063532
H            5.15010336588849       -1.17922519874687       -0.38723563878919
H            3.90150879861496       -2.33916579139687       -0.55553359229860
