28
 energy: -53.885796870586 gnorm: 0.000947731492 xtb: 6.6.1 (8d0f1dd)
N           -5.11638619997419       -0.64832273541831        0.06507420758790
C           -3.96933091026628       -0.57228755230382        0.03190534184084
C           -2.57725364215305       -0.49768097309258       -0.00438761555301
C           -1.70316352229813       -1.59931706346314        0.04891247142569
N           -2.08179544871888       -2.87880788320895        0.16401634044168
C           -0.35214532133542       -1.10765260349056       -0.01640165834154
C            0.85595324514095       -1.80775755362024       -0.05882963811794
N            0.90422339766940       -3.18015052821274       -0.12313029148853
C            2.06574212786179       -1.06442362979857        0.00717463776039
C            3.28866242310994       -1.76213590967738       -0.00975226922702
N            4.24158729076642       -2.40214385738658       -0.03992812601243
C            2.03321152088934        0.32456328298114        0.04277622463412
C            0.75652530206785        1.05670124446836       -0.00111953020535
C           -0.41449436340846        0.31728044988953       -0.02839016486110
C           -1.80880671175474        0.69516535292350       -0.04574573484928
N           -2.30829666238154        1.91898586792096       -0.07968073093925
C            1.14355057791870        2.41028508200844        0.01705572856905
C            0.31063904955795        3.51602133622448       -0.01371892726212
N           -0.44193285986779        4.39174922434351       -0.04336444805909
C            2.55867430240714        2.39323844880823        0.06859143108140
N            3.07389227216132        1.17351261488873        0.08429750872857
H           -1.41832295324349       -3.56264781911041        0.48992636827668
H           -3.06171617896006       -3.07077201738529        0.30812045199370
H            1.83418051927823       -3.56415803824378       -0.22470123205679
H            0.21170102097791       -3.63376690312087       -0.69716021593840
H           -3.30847719364641        2.04761285802050       -0.08726371995025
H           -1.71330680268236        2.74157122344969       -0.08206965949580
H            3.19898141328360        3.25696439480608        0.09307176451779
