29
 energy: -53.604292097463 gnorm: 0.000647608550 xtb: 6.6.1 (8d0f1dd)
N           -5.36901291566863       -1.52500332298500       -0.08908780564630
C           -4.28438374739533       -1.14559031832151       -0.04125358925614
C           -2.99974862860278       -0.60152525571167        0.00346322149095
C           -2.75076479495617        0.81087433493308       -0.04832666547466
N           -3.72230340690815        1.73848562039432       -0.16269604521644
C           -1.34841029204343        1.00459263421100        0.02066232751357
C           -0.56492475540479        2.17434783408422        0.07041424367096
N           -1.13197043931754        3.41412941003409        0.14439680858006
C            0.83463801985229        2.05562751582603        0.01747701738358
C            1.43315304040876        0.81565792983084       -0.00839280022472
C            0.63598149513824       -0.41851514872255        0.03204572227943
C           -0.74899998407287       -0.29574043466302        0.04691520920027
C           -1.78100641307547       -1.26351517143523        0.05431559284604
C            1.51824342082673       -1.49885975527790        0.02592407959226
C            1.21406454587392       -2.85543837394549        0.05820476385791
N            1.00041748042639       -3.98669886253484        0.08455651058985
C            2.85442023830578       -0.97354481347088       -0.01658451847766
N            3.96542338265961       -1.71768731228672       -0.03205559463989
C            2.79475430997554        0.43850033319542       -0.03690154007115
C            3.89783319863847        1.28479329679274       -0.07723029424301
N            4.82460627607752        1.96753503195443       -0.10794038889939
H           -4.66059055168533        1.40018178211413       -0.31821979795378
H           -3.50054455395338        2.64622690019049       -0.53706458365117
H           -0.50026887860286        4.18350046193012        0.30629978396474
H           -2.02942413602474        3.49715951508441        0.59392332455244
H            1.44285769476823        2.94898112099352        0.02525978158439
H           -1.63987697510136       -2.32792222157627        0.08582962321792
H            4.86927078782928       -1.27705670191298       -0.06154016903739
H            3.90213845143210       -2.72164982782471       -0.01829835923264
