27
 energy: -49.361837773945 gnorm: 0.000656195824 xtb: 6.6.1 (8d0f1dd)
N            1.47057915195087        0.21961607960994        0.22786901687178
C            0.33058710502840        0.11991747637113        0.10829056235063
C           -1.06046171740992        0.03536072775884        0.03939702544668
C           -1.91738519194846        0.37589756409422        1.12187459269540
N           -1.48824911641333        0.81736176991413        2.32963092369768
C           -3.26091916094849        0.17164409468133        0.69220106623753
C           -4.48176747079439        0.27389353365974        1.37178745382153
N           -4.54223932942718        0.55979645215710        2.70345183719513
C           -5.68791404304600        0.09626342026738        0.65559105191870
C           -5.66220337344025       -0.24502345942327       -0.67090753160534
C           -4.38519589738140       -0.44629286582246       -1.38496109196606
C           -3.19884062845719       -0.23367690389106       -0.68124442780206
C           -1.84926007354251       -0.32838980380572       -1.05688141792773
C           -4.74518979435866       -0.80469223550717       -2.67191370989021
C           -3.96598422659222       -1.11618091109426       -3.77562125890887
N           -3.36363465000037       -1.38399561954550       -4.72054271638442
C           -6.20422455272922       -0.80054742607399       -2.66498796234040
N           -6.95590891595259       -1.09712753492181       -3.72806983461663
N           -6.71729791266058       -0.47254624778263       -1.48862036122007
H           -0.50058317724391        1.01657960149107        2.40154316024519
H           -2.09471843663905        1.41616046588882        2.86677731868437
H           -3.75615545284319        0.30475748073462        3.27879644521682
H           -5.44625619495961        0.47422470728362        3.14130650365493
H           -6.63188145211823        0.20433795879802        1.16741231373371
H           -1.48322230017755       -0.62295589408883       -2.02308683713493
H           -7.95670089541045       -1.06960415642209       -3.64405523128453
H           -6.52538229248457       -1.33509827433227       -4.60453689068832
