20
 energy: -29.684480074159 gnorm: 0.000425537435 xtb: 6.6.1 (8d0f1dd)
C           -2.97582692554424       -0.91343705324031        0.00144039088958
C           -2.82478056962399        0.42613262689511        0.00115934712660
C           -1.39451078843705        0.71136373161625        0.00071086217587
C           -0.71667542813286        1.88392779173403        0.00031583073942
C            0.71693008446496        1.88386676026372       -0.00008796867631
C            1.39466768905943        0.71124580690628       -0.00007115494954
C            0.71264051316476       -0.57768627502595        0.00034864953261
C           -0.71259391964107       -0.57762512205638        0.00074663714270
C           -1.67086609009149       -1.54911012468069        0.00118576279486
C            1.67083092328387       -1.54925142572658        0.00025060984759
C            2.97584495842018       -0.91368871869218       -0.00022926855666
C            2.82491166406562        0.42589365733364       -0.00041973745938
H           -3.90327420378647       -1.45728580761216        0.00179605317148
H           -3.59346103498427        1.17561732088172        0.00124061407942
H           -1.23681749615199        2.83176375615704        0.00029444873599
H            1.23715244285930        2.83165861851600       -0.00039848713831
H           -1.51501564111564       -2.61243392779526        0.00133119132393
H            1.51489182848085       -2.61256187752710        0.00047999416791
H            3.90324717934199       -1.45761495253590       -0.00039538592652
H            3.59365688456812        1.17531167158869       -0.00076655182125
