23
 energy: -41.659293076057 gnorm: 0.000243590452 xtb: 6.6.1 (8d0f1dd)
N            1.42112590681085       -0.05058754192053        0.15116226837238
C            0.27921514500062        0.00577041251253        0.02658665392149
C           -1.11439074589055        0.02783809666756       -0.05176880317340
C           -1.95817986182390       -0.67156660762014        0.87413935810838
N           -1.49533047473006       -1.37936172823462        1.91762869335100
C           -3.30902643879382       -0.43769922708526        0.49370257371356
C           -4.51848891196841       -0.93696012624454        1.01460921216170
N           -4.53921366651590       -1.88387185461426        1.99672974727343
C           -5.74186657182979       -0.43467813633043        0.52148749884855
C           -5.73655520847039        0.46698260599069       -0.51009383874092
C           -4.47034573398454        0.93700630791430       -1.13986183600852
C           -3.27396797218369        0.46415915238103       -0.61513794305505
C           -1.92209311486979        0.71920525482830       -0.94436914127159
N           -4.78541089042154        1.77506158056617       -2.11459177362568
C           -6.13933944433922        1.80548412916526       -2.08158181392566
N           -6.75094485621692        1.06630910874685       -1.17089286731376
H           -0.50290715019133       -1.34071874804921        2.09991691737746
H           -2.09840500057295       -1.57328687037867        2.70020331097210
H           -3.76970767181610       -2.53111632190641        2.05083985095503
H           -5.44275558644425       -2.27249761234002        2.22010014957150
H           -6.67321150148284       -0.78941881690273        0.93733864743473
H           -1.58905843618136        1.34808823419493       -1.74812288137671
H           -6.69083181308405        2.41311870865911       -2.77695398357004
