24
 energy: -41.373706451538 gnorm: 0.000826247223 xtb: 6.6.1 (8d0f1dd)
N            4.55034262089520       -1.48018642671186        0.03802091316157
C            3.43422832477969       -1.20396835670168       -0.00102422905709
C            2.10432493123652       -0.78455676103887       -0.03448793798632
C            1.72621215841274        0.62356707180472        0.03824689022614
N            2.62302623791419        1.61220740032199        0.18367623557630
C            0.33059183888665        0.69801809978570       -0.03903935559085
C           -0.55237095848630        1.81805588801925       -0.04892956034876
N           -0.04132315268947        3.09846136460833       -0.10166417283655
C           -1.91922217297138        1.59977577047201        0.02520890680019
C           -2.42903599311864        0.30377809414890        0.04538113261232
C           -1.52066653594663       -0.87703238727665       -0.03358116342266
C           -0.16200753064384       -0.64362431964559       -0.08107130851684
C            0.95727054536101       -1.53509268490980       -0.10010063712148
N           -2.22013158726054       -2.01623287836478       -0.02597273674861
C           -3.50436167310263       -1.64071452501982        0.04357957252981
C           -3.69789909713829       -0.25087566930827        0.08774472495231
H            2.31787543359073        2.51314610722618        0.51454396950680
H            3.58464340502049        1.35489160565337        0.34917896367827
H            0.78005829666638        3.22598749487332       -0.67221655188204
H           -0.73421405676119        3.82150352074030       -0.23098075896114
H           -2.59413567139087        2.44515158686859        0.03464198205029
H            0.88611187488464       -2.60480767095990       -0.14883172195454
H           -4.27469012715030       -2.39342626957381        0.05996557758852
H           -4.64041330388907        0.25707393848754        0.14544472704327
