27
 energy: -48.574944091649 gnorm: 0.000747047179 xtb: 6.6.1 (8d0f1dd)
N            1.44494167970261       -0.23442518260526       -0.01683434958478
C            0.29531029457165       -0.16171625762434        0.00227964806882
C           -1.09318224606919       -0.08983131792133        0.00990876111493
C           -1.93780761809469       -0.47958644964469       -1.06390487779689
N           -1.49288293702701       -0.96747782278745       -2.24411255526273
C           -3.29188215060574       -0.26779477371320       -0.68192790917856
C           -4.50832816982486       -0.44093136461787       -1.36706343110904
N           -4.52391795866614       -0.83678726201371       -2.69312802226265
C           -5.71474724406817       -0.24412893657494       -0.68553636005941
C           -5.71073531155643        0.16942617632306        0.63257420674532
C           -4.44535489132244        0.42558107038365        1.34536393218627
C           -3.26862412291701        0.20096059334305        0.66508047209992
C           -1.91101280159192        0.32706689215301        1.08431804878881
N           -1.56137906069313        0.75758976888486        2.29534806047034
N           -4.72372374169750        0.83365968429864        2.58544124260864
C           -6.08214402841505        0.82392504569612        2.60565785700485
N           -6.76464572515889        1.21414601558478        3.69360841826743
N           -6.71256177328839        0.43980409294955        1.48107482378612
H           -2.12000713981815       -1.53975151101653       -2.78561529502563
H           -0.51121124064565       -1.19289356088178       -2.30290362643442
H           -5.43658631201168       -0.79663081137783       -3.12318868768499
H           -3.79771814828832       -0.44561294439763       -3.27305933260710
H           -6.65184942512424       -0.39278739448883       -1.20162664185902
H           -0.59900401649662        0.83345013769351        2.57537326341988
H           -2.31063429295577        0.98562510488475        2.93201387423463
H           -6.26508807925000        1.35450411555087        4.55243933143700
H           -7.75771353868724        1.06930689191936        3.70421914863209
