27
 energy: -49.365334564178 gnorm: 0.000660697371 xtb: 6.6.1 (8d0f1dd)
N            4.30372885942233       -2.14737472814408        0.06391101933744
C            3.34071970245207       -1.51815223572563        0.03100499066005
C            2.18463741020136       -0.74196508553268       -0.00416146553914
C            2.14308658935990        0.66035552083728        0.04458983840235
N            3.21251738571581        1.46793059063444        0.14275931993874
C            0.76512181408316        1.07452320369130       -0.01403992383985
C            0.20713490957114        2.35556482462329       -0.05748197630391
N            0.99477726712682        3.48902588985460       -0.12478346953104
C           -1.19282042549141        2.48242756765426        0.00545824394964
C           -1.98994867915113        1.36474754102309        0.03781872215507
C           -1.42113941712055        0.01069912029465       -0.00082055406155
C           -0.03607614006287       -0.10378124052419       -0.02260615288672
C            0.84824123450156       -1.23570832246356       -0.03929125717199
N            0.51718536423858       -2.51798876075610       -0.06871557010133
C           -2.54066937102571       -0.83484766493805        0.01312549656641
C           -2.54719468018649       -2.21795464807506       -0.01644283790881
N           -2.48459194998971       -3.37170698521450       -0.04416914920495
C           -3.66551351435241        0.03789271888268        0.05696462021447
N           -3.34588075295701        1.31388940264937        0.07192563613457
H            3.08167673271368        2.40306487417426        0.49328509407046
H            4.11110318550334        1.03590090138757        0.29616616971486
H            0.47432816520613        4.34338619806628       -0.26186935283212
H            1.81052078085450        3.42629249754430       -0.71505247205072
H           -1.64488547233539        3.46283515056802        0.00426598616900
H            1.24109019804412       -3.21924052490936       -0.07859645478419
H           -0.45191459460600       -2.81756273458131       -0.06918509163634
H           -4.69573397111536       -0.27259993732045        0.07617093353970
