27
 energy: -49.355410828265 gnorm: 0.000429838114 xtb: 6.6.1 (8d0f1dd)
N            4.51738595127747        2.46620656403931       -0.10204921852809
C            3.53923584400459        1.86326159758316       -0.04953777666258
C            2.40093117734294        1.05743378075373       -0.00049416745746
C            2.46803897807647       -0.38872523330391       -0.06192556329308
N            3.62366953514312       -1.07656910994258       -0.17645048450259
C            1.15796797489806       -0.87720389347985        0.01413601880897
C            0.61137127887922       -2.18706664507982        0.05791036400786
N            1.41559330292004       -3.29065512620766        0.12123558037267
N           -0.68902707143084       -2.42220317882574        0.00799344548037
C           -1.52631590439785       -1.38495382076774       -0.02123875448171
C           -1.08200661719258        0.03772600650236        0.05009961925286
C            0.28000357710015        0.25969376931236        0.06226780154305
C            1.07684758893762        1.43888093118784        0.06807482840464
C           -2.23069683756026        0.83186874287084        0.03690436119662
C           -2.31497708632835        2.21764039601205        0.08663347619862
N           -2.42078991032658        3.36445579922164        0.12676009397461
C           -3.35210419861030       -0.05222759265487       -0.04374728247311
N           -4.62669910316181        0.35428421992094       -0.08046166966248
C           -2.90373610744133       -1.39319255274153       -0.08136084804964
H            4.46268739791469       -0.54410935901675       -0.35012270275213
H            3.59867666280707       -2.01803180266472       -0.53213164363891
H            2.28679035873682       -3.20934712705589        0.61983867216710
H            0.90794949872815       -4.15104937301118        0.26684085020426
H            0.70147916950080        2.44401670076665        0.11427218490314
H           -5.37594394758781       -0.31212446413951       -0.14398954923881
H           -4.84150494318968        1.33696926937019       -0.05237432900252
H           -3.53573308213987       -2.25695476324890       -0.14347324427190
