25
 energy: -45.901097560466 gnorm: 0.000755497595 xtb: 6.6.1 (8d0f1dd)
N            4.36239691238974        2.18445565801609       -0.10206895958949
C            3.34018823742273        1.66277579991476       -0.04969319651812
C            2.14057313763072        0.94568953078043        0.00401984687027
C            2.11274482286585       -0.52859581402402       -0.04692781331488
N            3.22460612187748       -1.26717417183610       -0.17463339869621
C            0.78789132126147       -0.92662870573744        0.04280745252654
C            0.14142862264359       -2.20712268983475        0.06890354533671
N            0.88879382646409       -3.35961743220287        0.11732666924784
N           -1.15785254440123       -2.34342264252969        0.00476611385583
C           -1.92624297630084       -1.24141758224716       -0.03524725988550
C           -1.37522067427310        0.13607231914808        0.04449297654781
C           -0.01973343880423        0.26525213805483        0.07874071140042
C            0.86359638532875        1.41116519593330        0.07404281603790
C           -2.49157821101757        1.03159375746570        0.00929296428917
C           -2.39643200113867        2.42018587608849        0.07276026861319
N           -2.28374125576975        3.56417389428856        0.12556519844970
C           -3.63196646194613        0.25064009176517       -0.08967210500807
C           -3.29240144038714       -1.12856516560356       -0.12115282090124
H            3.15042916832975       -2.23372192166802       -0.44680691542461
H            4.10050138297662       -0.79539890555507       -0.33866774179334
H            0.31818658147523       -4.18635037830093        0.22722249642101
H            1.71357378870997       -3.34482583390945        0.69746484223664
H            0.54166595314103        2.43486546973096        0.11350637768366
H           -4.63614519822386        0.63436652553900       -0.13824566400205
H           -3.99489555465527       -1.93512095957607       -0.19861979918328
