29
 energy: -53.601969630105 gnorm: 0.000544028995 xtb: 6.6.1 (8d0f1dd)
N            3.94199712525663        2.15444799557606        0.12953738395362
C            3.08498023168108        1.38752365327624        0.08696357654017
C            2.12032646030916        0.38439146008081        0.03822031418514
C            2.45142439486526       -1.01457489544087        0.01570664901245
N            3.69752830830162       -1.49861617074362        0.03442216102727
C            1.25907057437535       -1.77141418090305       -0.02918995526282
C            1.19423037084744       -3.16049144937942       -0.06029127835214
N            1.16814848083725       -4.31150804952621       -0.08707703348906
C            0.17737373903919       -0.86531878006118       -0.03718653247444
C            0.73076405138373        0.49430716882707        0.00772109793563
C           -0.11727316839505        1.61145413330259       -0.01666338284082
C            0.39770144056276        2.91885164309068       -0.05004063867331
N            0.73717781920920        4.01640313147343       -0.09333690531010
C           -1.51935997209209        1.44282151029370       -0.06197112082172
N           -2.33399249428567        2.53859297065579       -0.11613595649535
C           -2.04268447929061        0.13480434157315       -0.01910947636408
C           -1.19072540749541       -1.01465024756517       -0.05610041766002
C           -2.02868696269244       -2.18103899954796       -0.05754985817779
C           -3.32855226129620       -1.77791645863390        0.01122748472392
C           -3.36926248668675       -0.34772453022733        0.06857551927912
N           -4.50069231600975        0.37288137846652        0.20856174935325
H            3.85684859672277       -2.49169669457602        0.01869304702260
H            4.48179770271688       -0.86878179474986        0.06433245911128
H           -1.86737867665580        3.42567894632871       -0.24632695301535
H           -3.21338626234968        2.44368390508681       -0.59715592558385
H           -1.66324870611424       -3.18998179651717       -0.09681533847679
H           -4.19946152444926       -2.40590841608145        0.04232976322419
H           -4.44208644772643        1.31123759454808        0.56980241768369
H           -5.35077503206948       -0.13139980612783        0.40564431594518
