28
 energy: -54.679711376550 gnorm: 0.000534292460 xtb: 6.6.1 (8d0f1dd)
N           -5.82103506320061        0.53851439375240       -0.00146026055208
C           -4.68220324668351        0.38716583401407        0.00043417135893
C           -3.31042051554919        0.11576819374048       -0.00004259385823
C           -2.78276285355795       -1.23957035051669       -0.00068683611246
N           -3.53926027600552       -2.33259628848260       -0.00129654486456
C           -1.37199007865615       -1.14750216279217       -0.00035068343144
C           -0.38604655800974       -2.14027553240760       -0.00056632607493
C            0.95276778665120       -1.78167121673357       -0.00006450388585
C            1.94125313077316       -2.78902868933518       -0.00064088976203
N            2.71289658600615       -3.63731746440201        0.00028562271961
C            1.31691110973363       -0.41513357548430        0.00062300076976
C            0.28548416529889        0.62958445589322        0.00082590046112
C           -1.03929192555733        0.24408978749822        0.00035421691024
C           -2.25748030620293        0.99845292715523        0.00043333468241
C            0.93645389280484        1.88206706710866        0.00162308746359
C            0.33468435908312        3.13887651144957        0.00243739508961
N           -0.14387340731395        4.18492151405021        0.00181279702958
C            2.32528959729453        1.64336668476272        0.00184819114841
N            3.29567332939026        2.55917518451549        0.00260321180039
C            2.55418042086073        0.21474483845416        0.00141808577444
C            3.83433582602795       -0.33734319470394        0.00242280845826
N            4.92479010142565       -0.70264114716193        0.00032853130241
H           -4.54393664474828       -2.25167165559350       -0.00147463322569
H           -3.12324347362261       -3.24888928617462       -0.00162367776828
H           -0.65114605133171       -3.18822413425831       -0.00110749241501
H           -2.32178132164457        2.07092883490231        0.00098305593429
H            4.26066843894893        2.27164179562328        0.00277689931869
H            3.06961541188404        3.53996631472606        0.00298274032845
