25
 energy: -46.704176846665 gnorm: 0.000799894250 xtb: 6.6.1 (8d0f1dd)
N            5.18387014831732        0.12217136568677       -0.00069794282767
C            4.03638859198317        0.08452212556438       -0.00151613813644
C            2.63693653410108        0.14218654626678       -0.00074617517525
C            1.91315160064183        1.43166530109114       -0.00064480829181
N            2.53716916175714        2.60916043713640       -0.00087285491110
C            0.54818200565622        1.15070266949494       -0.00038184647856
C           -0.58335820579887        1.99926098688778       -0.00031320298183
C           -1.84250511179613        1.45161975449576       -0.00006280321443
C           -2.98339934333500        2.28077139216784        0.00062739100242
N           -3.91115837913407        2.95568958438515       -0.00081311865323
C           -2.01210239432358        0.03340460330022        0.00002343304150
C           -0.83748027126630       -0.83520426288407       -0.00003414196094
C            0.40505388463819       -0.27895686815618       -0.00023091268614
C            1.73486794878495       -0.87123032559661       -0.00036950359583
C           -1.32753009030360       -2.19856002806650        0.00024635634899
C           -0.51165253061985       -3.32926507414587        0.00063588880133
N            0.19087267674830       -4.23982128532318       -0.00031059161078
C           -2.70189857731822       -2.13528017044179        0.00030813578925
C           -3.12521666734624       -0.77077241440187        0.00024178207067
H            3.54381445624430        2.64925264779457       -0.00109090562152
H            2.01378384082026        3.46822256550325       -0.00084167024990
H           -0.46038670445956        3.07275311204629       -0.00039028127591
H            1.93500915443374       -1.92645475676494       -0.00036745484881
H           -3.36530247900177       -2.98134576107239        0.00049981955229
H           -4.14889034432329       -0.44563388866790        0.00034872921368
