25
 energy: -45.910399088597 gnorm: 0.000877287909 xtb: 6.6.1 (8d0f1dd)
N            5.09271818344186       -0.12212776642346       -0.00174591967000
C            3.94195191683043       -0.13314646401449       -0.00185957097935
C            2.54895638736863       -0.14602277095572       -0.00139708487089
C            1.73108422876391       -1.29323283275474       -0.00077553358765
N            2.15355050407162       -2.55303863781041       -0.00049414333659
C            0.34957197808499       -0.86399700240980       -0.00051535978229
C           -0.81759816921698       -1.60962518690659        0.00006813795989
C           -2.05702190248463       -0.95650104569286        0.00023350087837
C           -3.23605959380781       -1.73080474715299        0.00084517648062
N           -4.16131409449746       -2.40905707441176        0.00121208170308
C           -2.11063350202912        0.44085536485479       -0.00020900218415
C           -0.86238224211443        1.24893741062754       -0.00085187208086
C            0.34360701014433        0.55525375005569       -0.00097424835220
C            1.70727185716035        0.99961271228908       -0.00150863500986
N            2.11007397119401        2.26342419588531       -0.00203892446263
C           -1.30632093555022        2.56398798827272       -0.00114173943917
C           -2.70369723140873        2.48688232196251       -0.00070197911563
N           -3.18011501507657        1.23436678195349       -0.00016588436818
H            1.49463617353753       -3.31295559070339       -0.00006456153392
H            3.13936802383160       -2.75941173450044       -0.00071117943719
H           -0.79695362532204       -2.69058006544177        0.00043012847714
H            1.42513112223555        3.00128863503311       -0.00209314171714
H            3.09090263233064        2.49265623566290       -0.00240023976982
H           -0.73212782076823        3.47177086118938       -0.00160570551940
H           -3.39128601091927        3.31476096539195       -0.00080722088221
