24
 energy: -46.201781421215 gnorm: 0.000567946279 xtb: 6.6.1 (8d0f1dd)
N            1.43279227569748       -0.19980990141573       -0.10184695016213
C            0.28408948789665       -0.17032709558475       -0.05802133424762
C           -1.10987153900029       -0.13573996414425       -0.02149872200363
C           -1.95493478667757       -0.08059834982687       -1.15868226793824
N           -1.54417704491508       -0.05406546574848       -2.42008599360904
C           -3.32982029839909       -0.05824670201958       -0.71351070219102
C           -4.53033390952272       -0.00684990181312       -1.40911675495215
C           -5.74447341058243        0.00384699497195       -0.71005898803126
C           -6.95499719089875        0.05605773807599       -1.43241938791992
N           -7.91586853016642        0.09955409281180       -2.05741095667373
C           -5.73951977466755       -0.03749581544150        0.69017459082093
C           -4.46371597535850       -0.09195840600514        1.42459036685717
C           -3.29501996194065       -0.10074151373297        0.70037788747698
C           -1.92248485548453       -0.14891352569918        1.13602848897478
N           -1.59168611993826       -0.19488932498225        2.41140093269145
N           -4.73458468766897       -0.12361605488013        2.73790130723941
C           -6.07312511161359       -0.09012579579240        2.76926446131620
N           -6.71842495113274       -0.03910377490708        1.59910445724982
H           -2.20760827619329       -0.01471581480778       -3.17552834572018
H           -0.55977893720237       -0.07311040277101       -2.63516398072168
H           -4.55451039653339        0.02554736862130       -2.48952952580792
H           -0.63273032075542       -0.22861243965692        2.71858072175442
H           -2.35177518658413       -0.19506702959816        3.08233032535678
H           -6.60972049835833       -0.10371891565374        3.70048037024055
