26
 energy: -45.632746436439 gnorm: 0.000891427809 xtb: 6.6.1 (8d0f1dd)
N           -5.45294105986364        1.23451928344945        0.00104983287422
C           -4.33816228578295        0.94896245543233        0.00024996700180
C           -3.01072738378735        0.52236266511319        0.00072725976548
C           -2.63285553841595       -0.87958432224454       -0.00026640242517
N           -3.51113933220567       -1.88590872571555       -0.00150973175492
C           -1.22521487928422       -0.94414005401151        0.00024004512581
C           -0.35262739964448       -2.05032273165480       -0.00039692818629
C            1.00458163238443       -1.85070526970015        0.00026188774014
C            1.51922356737567       -0.54689628811006        0.00165220340768
C            0.63028435674942        0.63278706237505        0.00237945004218
C           -0.73731298085899        0.39678639130959        0.00161714720023
C           -1.85920360202852        1.27936189825999        0.00192712168704
C            1.42317148326994        1.77878053735737        0.00374513051029
C            2.75916616987160        1.37812525133700        0.00389645209091
N            3.84849275540848        2.16158436686818        0.00486413316797
C            2.82421693657753       -0.07060381943862        0.00241329469525
C            4.01239639454715       -0.78873867701883        0.00157402895492
N            5.02561066649762       -1.33826802287324        0.00342220204126
H           -4.49883528108816       -1.69105437847272       -0.00170244914297
H           -3.19821757128258       -2.84101322571471       -0.00218505568278
H           -0.75333523952528       -3.05454664749841       -0.00143734916867
H            1.68862775531810       -2.68641431708771       -0.00027121440250
H           -1.81183185799366        2.35256194169914        0.00283879904524
H            1.07831417946369        2.79492956609990        0.00447132641180
H            4.76422697281330        1.74560516736592        0.00528663809429
H            3.76162685508452        3.16215966837375        0.00632251560680
