26
 energy: -45.645601638158 gnorm: 0.000611730115 xtb: 6.6.1 (8d0f1dd)
N           -4.48908618302262       -1.54823873027992       -0.00090228454767
C           -3.47737196188959       -0.99904583634447       -0.00039305994364
C           -2.26181661405104       -0.32014643825948       -0.00046575488084
C           -2.10192429859614        1.07530060752234       -0.00072756046264
N           -3.08255210129242        1.97453354656908       -0.00110331955829
C           -0.68721153189054        1.36850847929675       -0.00046582130154
C           -0.04245324131044        2.60089007310334       -0.00041060242701
C            1.34321679442098        2.64077766069290        0.00001702445921
C            2.07489838275044        1.46316225759391        0.00034651194198
C            1.41005870243629        0.15002959727240        0.00017806062477
C            0.01562969521311        0.13733298300367       -0.00017282236673
C           -0.96924322315829       -0.92251773927139       -0.00021509488766
N           -0.76172845287538       -2.22452039654966        0.00001051310673
C            2.43167315656339       -0.81451498689293        0.00029789258043
C            2.26073990557171       -2.18619673524435       -0.00051914465417
N            2.04767988637738       -3.32393747266967        0.00099340458571
C            3.67693915776089       -0.12654420891442        0.00080999915720
C            3.46173969770355        1.23319698616309        0.00078110802874
H           -2.87247981660946        2.95763914136119       -0.00132695493788
H           -4.04417019806298        1.67614569284309       -0.00126410680965
H           -0.60992005750452        3.52089622068094       -0.00065833867731
H            1.85824945912509        3.59027882488843        0.00006964051087
H           -1.55267059872343       -2.85116832852885       -0.00002243849239
H            0.17556796551955       -2.62130014178370        0.00011285077937
H            4.63287591109651       -0.62034445975506        0.00098100877215
H            4.21953541014799        1.99388762540278        0.00093631110027
