29
 energy: -53.621676044042 gnorm: 0.000742202615 xtb: 6.6.1 (8d0f1dd)
N            5.42878307313494       -0.84505691270668        0.00038468122196
C            4.34006194620486       -0.47140956986865       -0.00341358482806
C            3.02685978726540       -0.00713478897829       -0.00195822198300
C            2.63546273948106        1.34835740165748       -0.00193968835152
N            3.46089328548394        2.39529448908793       -0.00219718257515
C            1.20082476974372        1.40129955912694       -0.00149121419591
C            0.35216905202196        2.50357499311930       -0.00231835716139
C           -1.01717461941807        2.30830244021778       -0.00088174336790
C           -1.52904704425751        1.01722796284658        0.00163046268005
C           -0.65859045362814       -0.15778516406762        0.00200605427239
C            0.71280537626300        0.06282356504956        0.00000393948536
C            1.86194709997225       -0.81576692996962       -0.00060645517922
N            1.87189296251315       -2.13960380050852       -0.00130048134466
C           -1.49443609635314       -1.29656933543513        0.00528119518455
C           -1.11915763826749       -2.62734540886773        0.00906596738973
N           -0.79726415485137       -3.73831811050222        0.01474450499637
C           -2.84646404228776       -0.85200184781890        0.00718657790301
N           -3.92846259041573       -1.64848342503694        0.00356469519217
C           -2.86369848242677        0.56337381904414        0.00496106863558
C           -4.01743644881375        1.34038725305058        0.00956869633560
N           -4.99107965665587        1.95531802789284        0.01285878725116
H            4.45748199504442        2.25521286227402       -0.00180083528303
H            3.09598185404981        3.33163040045294       -0.00197924495897
H            0.75260417120535        3.50725545438277       -0.00423731690104
H           -1.69487683224627        3.14862118678078       -0.00148262957002
H            1.01666933012815       -2.68273408298795        0.00103057843069
H            2.75470065134724       -2.62658352664091       -0.00177935441767
H           -4.84831133762632       -1.24416394493709        0.02410740312672
H           -3.82585246231103       -2.64779649725751        0.02612653101219
