28
 energy: -49.085141378948 gnorm: 0.000541508598 xtb: 6.6.1 (8d0f1dd)
N           -5.37229366286632       -0.96805236874840       -0.00431050525753
C           -4.27437760108803       -0.61910671610432       -0.00427303630652
C           -2.94902000438665       -0.19931947993484       -0.00279414886449
C           -2.50126146976030        1.14352995733186       -0.00361259304272
N           -3.29091976165927        2.22166768199036       -0.00351991232551
C           -1.06983653792125        1.14048584274359       -0.00356950105046
C           -0.16435218374167        2.20079832834630       -0.00763775925745
C            1.19309805062348        1.93847132566833       -0.00599196526464
C            1.64958027564623        0.62506749908022        0.00211121348353
C            0.72083367256561       -0.51862829633917        0.00694197726891
C           -0.64008626323083       -0.21654661693363        0.00075341270839
C           -1.81060114593050       -1.04177778514776       -0.00107433203622
N           -1.83838991309909       -2.37580387123105       -0.00372234754972
C            1.47879317627143       -1.68429890573368        0.02183337589393
C            2.83514499863244       -1.32534282102806        0.02548188405686
N            3.89139400602167       -2.16506010549767        0.01189239417421
C            2.94854110248396        0.09923571076043        0.01186462520099
C            4.15147400717022        0.79158468773744        0.02122976363104
N            5.17077077631150        1.33008839218958        0.03503641394101
H           -2.89160329033392        3.14336788020928       -0.00186118623412
H           -4.29142763698545        2.11849932342811       -0.00065824260348
H           -0.51484685361905        3.22351836410629       -0.01305575510735
H            1.90828246305851        2.74788078851108       -0.01002620351277
H           -2.71681868266365       -2.86625222444052       -0.00728721881022
H           -0.97811335349458       -2.89375919084156       -0.00588932488176
H            1.12844110994378       -2.70119911324800        0.03050903848371
H            4.81846227461751       -1.78719717857368        0.10363391414656
H            3.75882534733328       -3.15269950650058        0.13415659771565
