25
 energy: -45.135942546270 gnorm: 0.000673924859 xtb: 6.6.1 (8d0f1dd)
N            1.43908931555860        0.22250762061804       -0.00551447873685
C            0.28829717900364        0.17968839625818       -0.02695762963784
C           -1.10183521386763        0.13484916764690       -0.04203630425241
C           -1.95377697323129        0.74256528711396        0.91902307909510
N           -1.53633340424482        1.44538782959638        1.97626757547961
C           -3.31456401106191        0.47554222766121        0.56227275136409
C           -4.52437000348329        0.83380964369957        1.15799067370053
C           -5.72590781201843        0.43675612272215        0.59557744303596
C           -5.72032954429095       -0.32296204504127       -0.56982014571985
C           -4.45575045771687       -0.71204004100501       -1.21553737228780
C           -3.27930075466906       -0.30027426885693       -0.62723220382437
C           -1.91419677752422       -0.51264496388568       -1.00120422626138
N           -1.56170706587962       -1.20843220268396       -2.07575206041272
N           -4.73061152189544       -1.42659819796924       -2.31197294720525
C           -6.08494331406659       -1.46025734566435       -2.31355254712723
N           -6.77168295329738       -2.12410162522266       -3.25614279480137
N           -6.71776461068880       -0.82252818701775       -1.30654203269944
H           -0.55289573149229        1.57755049314854        2.14176527859475
H           -2.20185672014811        1.84458289044625        2.61403169350594
H           -4.53329190031470        1.42428344394873        2.06441581768952
H           -6.66506641825949        0.70971890293018        1.05060400783881
H           -2.31013469416417       -1.59572953382496       -2.63304629262338
H           -0.59830510910298       -1.35478771443016       -2.32531948485891
H           -7.76875602647640       -2.01000304361168       -3.27977660911845
H           -6.28297547666775       -2.46488285657649       -4.06379119073707
