26
 energy: -49.650907638833 gnorm: 0.000663718222 xtb: 6.6.1 (8d0f1dd)
N            1.44503694417287        0.03500377712682        0.24723205169299
C            0.29721705713244        0.03079736494301        0.16612024628996
C           -1.09389851238503        0.02643280393892        0.08068670842147
C           -1.97832042200728        0.12836876604137        1.17453060678976
N           -1.62472459290758        0.24427318748761        2.45466543842248
C           -3.32352026462365        0.08552933517714        0.66811057493568
C           -4.55671546634826        0.14610801201154        1.29937043379552
N           -5.71174304672578        0.08983645450521        0.65256826479070
C           -5.67949434650590       -0.03009728335053       -0.66135632173883
C           -4.42560196178949       -0.10592816559818       -1.46088094577838
C           -3.24177841762139       -0.04419996559326       -0.75232492895348
C           -1.85111227511344       -0.08089109956133       -1.11680303625881
N           -1.35405498423722       -0.19381458296951       -2.34109625958119
C           -4.85705410659869       -0.22543735258995       -2.78512303039377
C           -4.07566184422465       -0.32976293193450       -3.91903992997873
N           -3.37908667668889       -0.41749577575731       -4.83754334301847
C           -6.29089660151252       -0.21518018408780       -2.70657951299586
N           -7.12632391531686       -0.30814289165423       -3.74675423057092
N           -6.74995359119951       -0.09992590165935       -1.45364087291123
H           -0.65146981777863        0.26504728816411        2.71094904842487
H           -2.32373258735219        0.31140722190680        3.17346717555712
H           -4.64136521563587        0.24450110533556        2.37523353744930
H           -1.95995061087078       -0.26593011078972       -3.14913169153554
H           -0.35609839363144       -0.20894831406553       -2.47954305287268
H           -8.11502664733013       -0.28966595807910       -3.57033786466343
H           -6.77731970290016       -0.39418479894749       -4.68455906531839
