24
 energy: -46.190591268230 gnorm: 0.000281931396 xtb: 6.6.1 (8d0f1dd)
N           -5.43613849602279       -1.21064586710024        0.00173533818810
C           -4.31970297851290       -0.93820683523770        0.00160626292064
C           -2.98350867361779       -0.52695788462371        0.00149694598277
C           -2.59775436480265        0.87689546338444        0.00171123106174
N           -3.46831274998095        1.88719484978663        0.00204992515562
C           -1.19247798223348        0.92949378175112        0.00150037385453
C           -0.28425640159092        2.00401821974139        0.00156772303578
N            1.01367259608375        1.85254599563225        0.00135562522154
C            1.48738196943031        0.59780992460726        0.00103419622047
C            0.64333031763139       -0.62369116209516        0.00091967110070
C           -0.71636030185146       -0.42589953492787        0.00116669352917
C           -1.84935672099699       -1.30116758080817        0.00117006912753
N            1.39359512716866       -1.74189478819217        0.00058139618003
C            2.65610297704673       -1.32953304853113        0.00048566586363
N            3.68906711198866       -2.17042947472228        0.00016420821602
C            2.78704154107698        0.12561141207163        0.00077262546529
C            4.00890320504830        0.78579806879432        0.00078244400478
N            5.05918135545194        1.25650072906912        0.00045492575609
H           -4.45807194258871        1.70101693628984        0.00217807788510
H           -3.14763664816151        2.84015621223074        0.00218719293311
H           -0.63240016830362        3.03040804941654        0.00180568698424
H           -1.80111604926875       -2.37337786153713        0.00094961496365
H            4.63108573745724       -1.81801637782414        0.00012383108778
H            3.51444146664859       -3.16063518807558       -0.00003296283829
