25
 energy: -45.120149646707 gnorm: 0.000785397166 xtb: 6.6.1 (8d0f1dd)
N            4.68264071526316        1.43953700491573       -0.00544687591045
C            3.62551523995637        0.98235736931919       -0.00330992061040
C            2.35559468622701        0.41407596538825       -0.00077953410056
C            2.09067201400583       -0.99397544485612       -0.00252162280149
N            3.03726041659117       -1.93964504294501       -0.00676679775405
C            0.68693534386478       -1.19208308611972        0.00154629830879
C           -0.13073989640536       -2.33212621336347        0.00100541497627
N           -1.44065882847035       -2.28823884539080        0.00610987506921
C           -2.02782625088942       -1.07846915334973        0.01188557021870
C           -1.28012509081286        0.20135858434826        0.01220283039137
C            0.08530870437247        0.10332309517722        0.00661981652396
C            1.12897049913382        1.09596485696808        0.00437121723312
N            0.87144092182048        2.40089720831373        0.00715793826001
N           -2.11019220014503        1.26008476168763        0.02403980848654
C           -3.34260080515082        0.72183189206150        0.02991007883524
N           -4.43752999054956        1.50551006828471        0.01065170422134
C           -3.35101167018266       -0.70488395609586        0.02239200188194
H            2.78296150863714       -2.91126701512825       -0.00947694570942
H            4.00988155355127       -1.68336912829810       -0.01043533208042
H            0.29890291059785       -3.32808118016805       -0.00375433942525
H            1.60459078426745        3.08922586819850        0.00041185502003
H           -0.10061135897907        2.67360774953520        0.00663641992141
H           -4.32157197227265        2.49640302885848        0.12884818572149
H           -5.34300183004311        1.09864835010744        0.16025309512210
H           -4.22315059618795       -1.32640632874884        0.02491664270055
