26
 energy: -49.649551849215 gnorm: 0.000478740903 xtb: 6.6.1 (8d0f1dd)
N            1.42448168930058       -0.21005417293829        0.00730857807339
C            0.27479968792638       -0.16969702610925        0.03390423440873
C           -1.11777967053268       -0.12653259760044        0.05304815668145
C           -1.96696803753198       -0.68632238647764       -0.94944601669410
N           -1.53782034335389       -1.32560855317393       -2.03916258158354
C           -3.32269734209014       -0.44399490826882       -0.58314566747983
C           -4.55070626425576       -0.75722314434849       -1.17323397558782
N           -5.71033246483101       -0.42704424992842       -0.64706800246524
C           -5.70481480597491        0.24049784293736        0.50848963567374
C           -4.48112026076917        0.63293715477888        1.23548437536625
C           -3.29616766013610        0.26934483833379        0.65257275165841
C           -1.92196686985313        0.46372079770657        1.04293331193204
N           -1.57491157157864        1.09876032505889        2.15582733986590
N           -4.75949120568365        1.29747560390067        2.37489243550384
C           -6.09443178487858        1.35699781565444        2.42565181614778
N           -6.74470805816029        1.95351883723509        3.43136250379810
C           -6.74265739324641        0.72203581241926        1.30118993415924
C           -8.12107343637381        0.66152124070136        1.14258986347377
N           -9.27091475276450        0.65269570617031        1.08467706047937
H           -2.19367621357140       -1.69512404316490       -2.70473345522874
H           -0.55150671009902       -1.44211526220333       -2.20233859820572
H           -4.60774480855539       -1.29763049315404       -2.11065334658094
H           -0.61127535466182        1.22695194932308        2.41546286345435
H           -2.32083621595264        1.45193501481203        2.73763753338111
H           -6.22357671683898        2.37250081449301        4.18035801983479
H           -7.74924343553299        1.97657308384279        3.43589122993366
