27
 energy: -50.157968815183 gnorm: 0.000673330501 xtb: 6.6.1 (8d0f1dd)
N            4.12505601045902       -2.00118727299888       -0.00194773524462
C            2.99254333314921       -1.80851155190872       -0.00125706427949
C            1.60902428149598       -1.60712160914873       -0.00060739642245
C            0.64776874739979       -2.59690582157663       -0.00050099786830
C           -0.65081110959478       -2.00719983774126        0.00003050751733
C           -1.83998581835590       -2.72012574216712        0.00054262576534
N           -2.85483562602711       -3.27198364267684        0.00092706648173
C           -0.50532621497158       -0.61342515077122        0.00011800136865
C            0.93303795474691       -0.34263361995985       -0.00001136112042
C            1.43089554189326        0.94138965933648        0.00009426572565
C            2.81422719340909        1.21050288035645       -0.00059119649873
N            3.91821995354867        1.52567535590444       -0.00146054646094
C            0.53395519613478        2.06814986617537       -0.00008670338812
N            1.05036642137085        3.31451016145175        0.00139497870743
C           -0.83008168854426        1.80918148235445       -0.00078230161842
C           -1.36834823305603        0.48955697836030       -0.00032692100309
C           -2.79301320362655        0.62535080296479       -0.00120936469708
N           -3.71325449508604       -0.32893097315513       -0.00068731904069
C           -3.09899906933070        2.02830329869212       -0.00258915370342
C           -1.93928191193096        2.73309276477825       -0.00230226122642
H            0.83454772392927       -3.65567217934149       -0.00089375756399
H            2.04735140453791        3.44705538131870       -0.00258610186143
H            0.44830167430234        4.11639738919471       -0.00485195907018
H           -3.47138887254160       -1.31395667249844        0.00019966345122
H           -4.68819225720083       -0.07610527931979       -0.00155014231330
H           -4.09704579858211        2.42452991543887       -0.00367187181145
H           -1.85511427452891        3.80466667793751       -0.00314517242470
