24
 energy: -46.968830377665 gnorm: 0.000372680829 xtb: 6.6.1 (8d0f1dd)
N            4.12677232439005       -1.53465410849818        0.00038495139250
C            2.97916420208715       -1.50822198130183       -0.00010640687028
C            1.57998874104439       -1.48653831493451        0.00027409886963
C            0.73928115684938       -2.56365430833436       -0.00017211046487
C           -0.63485464255164       -2.10734578672768       -0.00005146009384
C           -1.75386897433590       -2.94278006926926       -0.00096488428824
N           -2.67622403434719       -3.62796893758926       -0.00000652545235
C           -0.63705863118994       -0.72537679876178        0.00057509946606
C            0.75641544800457       -0.28402722700910        0.00079056516184
C            1.09947527111185        1.03638614612419        0.00134761751468
C            2.44133447290305        1.47501141428690        0.00164165427972
N            3.49681827366250        1.92424156864723        0.00185260817969
C            0.06240137871259        2.06957005848103        0.00172250508927
N            0.43853449313986        3.35371355796207        0.00229254266304
C           -1.25547039175599        1.65102478756349        0.00147265327393
C           -1.63417751235143        0.26896609552349        0.00090390606866
C           -3.02852485446311        0.26624302257766        0.00082895409582
N           -3.52832600584375        1.53136282048877        0.00131704535448
C           -2.51308527392064        2.35675129596396        0.00170513628647
H            1.03055390671621       -3.59825214967676       -0.00074618197575
H           -0.25381592677308        4.08267598264491        0.00256690554173
H            1.41464572258866        3.60440521326851        0.00248120132610
H           -3.68922627694022       -0.58041250517610        0.00046468750860
H           -2.66798209633736        3.42069967884660        0.00213754557313
