30
 energy: -58.129995374378 gnorm: 0.000616643158 xtb: 6.6.1 (8d0f1dd)
N            5.22426436663159       -0.20163756591570       -0.13628122042263
C            4.11741500163047       -0.50630622900712       -0.09814722075988
C            2.77969029466796       -0.91214539419745       -0.05416164186797
C            2.33947559317445       -2.23864514819859       -0.03693330608334
C            0.93465970363414       -2.27525925612693        0.00823476340260
C            0.16554632172749       -3.42837097387632        0.03984933658413
N           -0.52103832805080       -4.35696051195872        0.06961260975951
C            0.45783150700390       -0.94158743559622        0.02042655024197
C            1.64174670105256       -0.07743110729136       -0.01724569454053
C            1.52940329300761        1.31041951745383        0.01992806564558
C            2.66413271398708        2.14557839548239        0.04674605011778
N            3.52062575070860        2.90937197786229        0.08665405127083
C            0.25351802368910        1.92545457647321        0.07732493664840
N            0.14888705016642        3.29556900607125        0.14106941453308
C           -0.87257547974688        1.09703414883848        0.02454767767303
C           -0.78498683768878       -0.32609087473320        0.03925870079898
C           -2.14463120895454       -0.83992024973583        0.04364255236661
N           -2.53788505322151       -2.09954512982705        0.07875017896735
C           -3.02396922366741        0.26897230788659       -0.01230964008447
C           -4.41658481128484        0.20559757142513       -0.06290301265109
N           -5.56498647266881        0.16904663249102       -0.10728915848414
C           -2.26218914420232        1.45316549314478       -0.06105299293948
N           -2.76344082724696        2.68485523656415       -0.19345860889714
H            2.97672118225688       -3.10445336059324       -0.05449331284736
H           -0.58040042450357        3.66701830524433        0.72970918279485
H            1.03221123339521        3.77907927366885        0.23866418408737
H           -3.52569336078831       -2.30563942288272        0.07536579499050
H           -1.88257514523771       -2.87603781733334        0.09250892285546
H           -2.16359284191938        3.43580129358425       -0.49506724862431
H           -3.75592496105140        2.78195019268419       -0.34687554173577
