26
 energy: -51.223869620826 gnorm: 0.000749638995 xtb: 6.6.1 (8d0f1dd)
N            5.11696329914619       -0.00710442332241        0.00094236873386
C            4.00708978907848       -0.30299265656518       -0.00043552358693
C            2.67119038198933       -0.71379765680869       -0.00003751299105
C            2.25942349935001       -2.09446568705146        0.00029489239315
C            0.89000439424554       -2.16427272530507        0.00043585727150
C            0.08348400861960       -3.30500195947302        0.00147237422122
N           -0.61264429109795       -4.21909831505372       -0.00086371723003
C            0.38230420456686       -0.80766396880898       -0.00002490981173
C            1.53324172306293        0.08306400641214       -0.00011445207199
C            1.34410767573670        1.49260482529596       -0.00038507316696
C            2.45328815225461        2.36811599243317       -0.00094925620609
N            3.31989997997331        3.11819384721421        0.00034175617807
C            0.07013678128777        2.01557904537220       -0.00054415875181
C           -1.04190080919704        1.14777150744588       -0.00049899054679
C           -0.87365368145975       -0.27550955966081       -0.00023847622467
C           -2.19208373366309       -0.89353307266483       -0.00035014522449
C           -3.11482721827734        0.10141465261783       -0.00101551157878
C           -4.51335969101972        0.01409748767162       -0.00281551661622
N           -5.66094484449476        0.02324271431023        0.00061177279293
C           -2.41726939886523        1.40452139989729       -0.00082708631347
N           -3.05697172231856        2.56844459309351       -0.00123459273390
H            2.94045998962163       -2.92605139994710        0.00054341467215
H           -0.06851960535535        3.08686638546575       -0.00084500003967
H           -2.37257721719485       -1.95242642952748       -0.00047020280593
H           -2.54616077564504        3.43607879572776       -0.00123624961079
H           -4.06489965494418        2.59468182403108       -0.00145277355165
