26
 energy: -45.626753945347 gnorm: 0.000497689920 xtb: 6.6.1 (8d0f1dd)
N           -4.16823978161671        2.44107811533026        0.11879665589685
C           -3.39662577425588        1.58768054504283        0.08857871514459
C           -2.44737456627310        0.56872925879793        0.04845678855095
C           -2.72968819881772       -0.83093689267372        0.03674605993114
C           -1.54992193477844       -1.54666164949185       -0.00854407592352
C           -1.39657831978569       -2.93172649467812       -0.03420042482701
N           -1.24558925418643       -4.07235608697856       -0.05497732408235
C           -0.46801865065464       -0.59847255980401       -0.03527136065037
C           -1.06039701562588        0.73830921882921        0.00899732353394
C           -0.25895756488127        1.88325719519456       -0.02527521328366
C            1.11583523781850        1.77156444635408       -0.08707137412351
N            1.93054681219157        2.89189943961266       -0.13682038774231
C            1.70147783302596        0.47026914928313       -0.05795491397675
C            0.89031246835288       -0.70686642240272       -0.07898598017484
C            1.78127771283827       -1.86348690271395       -0.06374459129553
C            3.04766490852914       -1.41358273241223        0.01135164126338
C            3.02822223905566        0.04478184713373        0.05061670830098
N            4.12792320139175        0.79394154397460        0.20418248460320
H           -3.71951593858388       -1.25158027645317        0.06048508139511
H           -0.72663010625737        2.85750608125084       -0.02985923351086
H            2.71622078503545        2.82585710076180       -0.76772808456968
H            1.42024631837687        3.75724845818362       -0.24805633656607
H            1.44201869932179       -2.88144607354684       -0.09725598639435
H            3.95008041745584       -1.99478442693569        0.05223690746607
H            5.00130156209023        0.33770042036362        0.41285855003666
H            4.02954763153290        1.76178259427791        0.46626422719787
