24
 energy: -42.187669896870 gnorm: 0.000420415016 xtb: 6.6.1 (8d0f1dd)
N            4.38792651827537       -2.02370878815811        0.00079305431087
C            3.49613148023602       -1.29710804047836        0.00012364200704
C            2.40519326631814       -0.42873283731965        0.00020081398378
C            2.48852335855291        1.00330045695241        0.00089857725740
C            1.22255154366820        1.53715348238529        0.00053580521833
C            0.86171473996562        2.88418270218470        0.00100046183100
N            0.53104838475307        3.98591915212306        0.00151282818313
C            0.28262785356561        0.43475284606301       -0.00041259647688
C            1.05944631279536       -0.79548409079592       -0.00054648416382
C            0.42322769786084       -2.05312727189935       -0.00137307040933
C           -0.94021684520080       -2.12282478020034       -0.00206191450781
C           -1.70473901599623       -0.92984586566056       -0.00198072557434
C           -1.07621197048878        0.35174812582896       -0.00114700185010
C           -2.13169984900108        1.37358728549979       -0.00131586445192
C           -3.31699052408356        0.74309978724813       -0.00219791188323
C           -3.08635809006834       -0.70355314591566       -0.00261875251093
N           -4.06693740715783       -1.60574408604158       -0.00347690754828
H            3.41021238287924        1.55743353424466        0.00156768389754
H            1.02923164373155       -2.94655551837262       -0.00144210053407
H           -1.43881332352204       -3.08151014701078       -0.00268955718488
H           -1.94222834163412        2.43027032452887       -0.00081820109439
H           -4.29630916100904        1.18473112365468       -0.00256387324425
H           -5.03067623572290       -1.31768425676555       -0.00389624660138
H           -3.85511424821720       -2.58929285119508       -0.00374210045349
