22
 energy: -38.732867858159 gnorm: 0.000681575455 xtb: 6.6.1 (8d0f1dd)
N            4.47057623904793       -1.19003112498792        0.00148356275415
C            3.46622056577738       -0.63217406518197       -0.00148964000557
C            2.22832067610518        0.01544607525606       -0.00038046157035
C            1.98224271860259        1.35556318874015        0.00033653068799
C            0.55073538863558        1.57450430642792       -0.00012272759359
C           -0.06587634406216        2.82689779412276       -0.00040925410591
N           -0.58325711002089        3.85339223199666        0.00121926550679
C           -0.08613880537956        0.34387489625982       -0.00076434349121
C            0.93748917101414       -0.68158509236667       -0.00089175664812
C            0.63799051968079       -2.00489901161025       -0.00169603602081
C           -0.73280625614286       -2.42168674766849       -0.00236186960571
C           -1.72038618169338       -1.49266042864238       -0.00224772763519
C           -1.44158635279893       -0.06775294408480       -0.00146591471708
C           -2.64363113160401        0.59466557282883       -0.00160368498608
C           -3.70867616766301       -0.38724050952390       -0.00240346187239
C           -3.17837982264450       -1.62750098868023       -0.00279906698929
H            2.71219089916690        2.14434104400982        0.00070321004441
H            1.41874748419098       -2.75194537142112       -0.00180844000123
H           -0.95485618091868       -3.47882681459049       -0.00298758078696
H           -2.78899609048303        1.65970111359191       -0.00116417116214
H           -4.75197884801365       -0.13163243504452       -0.00264006554712
H           -3.69728272579684       -2.56685777413116       -0.00340820645462
