23
 energy: -42.460878345740 gnorm: 0.000241294478 xtb: 6.6.1 (8d0f1dd)
N            4.81098547964439       -0.61367739808640       -0.00175987815678
C            3.71869007040443       -0.25952724101791       -0.00138232455915
C            2.39628999596021        0.19587955551843       -0.00084421643196
C            1.98366643755269        1.50760933071346       -0.00040571554270
C            0.55109329322800        1.57120057904414        0.00017237351410
C           -0.23828039829100        2.71025719274634        0.00087710613254
N           -0.98896990891772        3.58872863507484        0.00149272853607
C            0.05564819807254        0.26886171068395        0.00000972094478
C            1.21992052112315       -0.63711423338519       -0.00057155912724
N            1.15742572213042       -1.93735180025645       -0.00068483493556
C           -0.05629811282346       -2.51465909163753       -0.00033074285404
C           -1.21895927197196       -1.78443981936250        0.00004979792708
C           -1.19553804534851       -0.35941258265444        0.00022263599699
C           -2.54922433683647        0.08294194654225        0.00057875755655
N           -3.01160204948431        1.31822429627411        0.00078256072544
C           -3.39501863407422       -1.10071279181652        0.00063795681115
C           -2.61760368398135       -2.20168951783810        0.00035924101261
H            2.62488641380787        2.37097485924228       -0.00050596784571
H           -0.05173767838191       -3.59599991515884       -0.00038715939429
H           -4.00650533606876        1.48254059599557        0.00103409490990
H           -2.38956683686850        2.12417287264709        0.00088995781478
H           -4.46838840708145       -1.05877319944183        0.00088822376645
H           -2.93966224189406       -3.22619757302675        0.00034359509896
