19
 energy: -29.955432078246 gnorm: 0.000543287247 xtb: 6.6.1 (8d0f1dd)
C            2.98852198955169       -0.91729541120131       -0.00105137485041
C            2.84203586591140        0.42232176948255       -0.00077207691741
C            1.41208646310114        0.71214541706583       -0.00065912868044
C            0.74229751325789        1.89194991037123       -0.00039930533799
C           -0.68883697756509        1.90326957707408       -0.00032808870225
C           -1.36412185049716        0.72731757052019       -0.00053688808429
C           -0.69689172515079       -0.56115286231795       -0.00082818596303
C            0.72657531536280       -0.57692717327419       -0.00088615560289
C            1.68023555438557       -1.55166210922455       -0.00111963800230
C           -1.69894972857846       -1.49211446367979       -0.00096853420071
N           -2.96000629397165       -0.89612581765047       -0.00078153544215
C           -2.78737200626338        0.38094637073431       -0.00055984330646
H            3.91372602744549       -1.46466650631422       -0.00120107414764
H            3.61157419466118        1.17060285316975       -0.00065294184492
H            1.27141070505825        2.83446106217523       -0.00023284891731
H           -1.20835203049980        2.85124144445404       -0.00012686122394
H            1.52014762621848       -2.61404612904796       -0.00132768628331
H           -1.63187439007256       -2.56397365449838       -0.00116905784914
H           -3.61160289605496        1.07040496436162       -0.00039100514340
