26
 energy: -45.621729950784 gnorm: 0.000568248012 xtb: 6.6.1 (8d0f1dd)
N            4.55760706253589        0.26196922970322        0.16986734397684
C            3.52558996745525       -0.24354846448651        0.11096122621174
C            2.29913766527415       -0.90041488175039        0.04279487304528
C            2.15542190722799       -2.34963075059363        0.00862467299066
C            0.84361585720564       -2.67954234322341       -0.04943740677693
C            0.08216349942436       -1.46048486592428       -0.06150939811941
C            1.03362478583947       -0.34842825340277        0.00132516034227
C            0.57405778663237        0.99541044080627       -0.02101043323441
C            1.47738342404706        2.07302080237928       -0.04309148359598
N            2.14087074100958        3.01104307749270       -0.08023025779961
C           -0.78968928207890        1.27037171958294       -0.07186105481140
N           -1.26133904877370        2.56871190188963       -0.09293840757349
C           -1.70729136682154        0.18054907421281       -0.05283184711817
C           -1.24924982278491       -1.18010151769298       -0.09952122534674
C           -2.42707625621668       -2.03877002191223       -0.09405490769238
C           -3.51718786676228       -1.25452383154411        0.00048528559739
C           -3.09506130533121        0.14007843458620        0.05944146323009
N           -3.95026308611650        1.16557719569690        0.22152140695785
H            2.99357985590600       -3.02274590884588        0.02962684054995
H            0.42406438922486       -3.66658814457129       -0.08507424069732
H           -2.04773611346030        2.73895441316892       -0.70202722997885
H           -0.53333314980223        3.26651971455949       -0.18068167505943
H           -2.39573232017786       -3.11020832054102       -0.14592848052720
H           -4.54571116194426       -1.56324381305236        0.04222169198519
H           -4.90940549906461        0.95856959928318        0.44816844237843
H           -3.58617369024752        2.05523423797941        0.52264233426559
