23
 energy: -37.657571429995 gnorm: 0.000381874307 xtb: 6.6.1 (8d0f1dd)
N            4.36651881152933       -1.13011083313503        0.00082353020168
C            3.46154108866879       -0.41903032812911        0.00008400236322
C            2.33809710027671        0.40302662646432       -0.00036271168216
C            2.27394787667073        1.76911559954914       -0.00083450664521
C            0.90240204640046        2.19199114073218       -0.00130247577740
C            0.09546310343816        1.08679201348907       -0.00109198595700
C            0.95890018190772       -0.09290237780599       -0.00047299117055
C            0.47439554147614       -1.35019305121356       -0.00013050090671
C           -0.95601857855635       -1.57838344340695       -0.00039763043682
N           -1.38856283868564       -2.85680023046488        0.00018647448518
C           -1.79942546411189       -0.48849999794245       -0.00095731904174
C           -1.30558061113506        0.86054945244793       -0.00133025176653
C           -2.39986045363476        1.70655198442192       -0.00193941508389
C           -3.58615539141907        0.91479644614329       -0.00192764029182
C           -3.24396288764219       -0.40227913504434       -0.00135235481734
H            3.11726589603843        2.43680606018896       -0.00091318397074
H            0.58791705514627        3.21902520761968       -0.00173806786610
H            1.13349540556461       -2.20831330674778        0.00034373634225
H           -2.37189180883605       -3.05760210565666       -0.00076167137839
H           -0.73459422004886       -3.61884206698215       -0.00039627512202
H           -2.37364859238464        2.78080052557194       -0.00236536488954
H           -4.58376828803504        1.31433032018395       -0.00232498410413
H           -3.91964403532783       -1.23850619368348       -0.00119137328421
