28
 energy: -49.094364542923 gnorm: 0.000587232029 xtb: 6.6.1 (8d0f1dd)
N            4.20300278537229        2.45308565891715       -0.03236142810681
C            3.31762594115603        1.71545033437605       -0.01971339108140
C            2.27607705456799        0.79586377885666       -0.01030297058217
C            2.44067081779547       -0.60712354372549       -0.01376751320506
N            3.61939310090276       -1.25979908054563        0.00444204155572
C            1.15915715696278       -1.22454652928983       -0.01231099967863
C            0.96351566107218       -2.59137261139578       -0.02338495677195
N            0.79468904988778       -3.73688804786688       -0.03627603851000
C            0.18004584921146       -0.20204882052379       -0.00626644693196
C            0.89006861104150        1.07396772669701       -0.00530292813627
C            0.21613936944997        2.28574772115604       -0.00082817097140
C           -1.16995906389719        2.30001227131352        0.00280180727468
C           -1.86302836148293        1.09820625639697        0.00190945126273
C           -1.20642517313633       -0.15936732845081       -0.00216752980773
C           -2.24640704010092       -1.17689457031494       -0.00011529587020
N           -2.06166166252783       -2.49166771036628       -0.00121103788458
C           -3.49134144721504       -0.53404149667842        0.00452836105750
C           -3.28742593557395        0.84184767336622        0.00533331232304
N           -4.22835854883568        1.79315660497741        0.00953273655973
H            3.64369789029395       -2.26157226330452       -0.06922061145902
H            4.47683075281512       -0.74004271406430       -0.06263202825662
H            0.77743811800877        3.20815306303599       -0.00012757516991
H           -1.69600684250376        3.24460269862629        0.00682061020332
H           -1.13512691629082       -2.89951379650845       -0.00757686755557
H           -2.85806603657795       -3.10674751203878        0.00056722058082
H           -4.44424214202606       -1.02905863247621        0.00681000887563
H           -3.96574162585425        2.76250665262967        0.00495076484739
H           -5.20323199291537        1.55097701390139        0.00693943403853
