23
 energy: -42.455055113672 gnorm: 0.000813302774 xtb: 6.6.1 (8d0f1dd)
N            4.53892243578835       -0.10618649401565        0.00121237937161
C            3.46706575627783        0.31072018856139        0.00141651994509
C            2.19183148530587        0.87385554739300        0.00084726055325
C            1.94364723745905        2.30808760372041        0.00144218927513
C            0.60780413204970        2.54294876407607        0.00084520149943
C           -0.06024049315520        1.27513039472413       -0.00015872889086
C            0.96741177950937        0.23117838577502       -0.00017763492692
C            0.59893669077760       -1.14371135062899       -0.00113583743571
C            1.58798916105440       -2.15173221831755       -0.00128515061590
N            2.35001161850953       -3.00888258756868       -0.00077881028741
C           -0.72928177622813       -1.50792101785476       -0.00207873103453
C           -1.71586564083017       -0.50174685533729       -0.00208440465725
C           -1.36948949010379        0.88421282550386       -0.00110664096876
C           -2.64860717742787        1.58758995834151       -0.00147285961444
N           -3.64805710046062        0.77271412700566       -0.00250814204729
C           -3.11746804231140       -0.52551006004874       -0.00292963826605
N           -3.95871351524250       -1.55387581513544       -0.00402852071696
H            2.73100266377135        3.03987298052776        0.00227013712745
H            0.11712187103717        3.49726284510271        0.00108921144808
H           -1.00417258118164       -2.55255111411560       -0.00283643212014
H           -2.79314232298719        2.65255719339780       -0.00094309924133
H           -3.62310174438379       -2.50160422217211       -0.00435289588125
H           -4.94761534192793       -1.36612329963454       -0.00454612421524
