24
 energy: -41.378214782949 gnorm: 0.000542048531 xtb: 6.6.1 (8d0f1dd)
N            4.68326209064508       -0.50557000578168       -0.01081513320321
C            3.63863869229611       -0.02331800333681       -0.00620464549180
C            2.38113470129678        0.57603319869830       -0.00136970143806
C            2.10016896529951        1.93025878806447        0.00007200885051
C            0.69747481729621        2.15132175368637        0.00280936549962
C            0.06321565460765        0.93273109757611        0.00313782307207
C            1.11923140311055       -0.11382462406796        0.00201137113727
N            0.90888705814038       -1.39283911994077        0.00409008913521
C           -0.37469143221417       -1.84637566920688        0.00625153804137
N           -0.48277152646254       -3.19004132444314        0.02392426867249
C           -1.45735628933316       -0.97290108462188        0.00280606609152
C           -1.24828128926688        0.43546745317007        0.00226382401500
C           -2.52804107012667        1.04754006243829       -0.00008150354549
N           -2.77815033058390        2.36358660994655        0.00077584540341
C           -3.51324216548691        0.01133928395227       -0.00163458581670
C           -2.87977680845244       -1.19572738375059       -0.00012011181983
H            2.84061060076819        2.71145610875194       -0.00085801015243
H            0.24633230756218        3.12804345316176        0.00419989169077
H           -1.37506561437699       -3.64390861074293       -0.02834002844669
H            0.36552639031745       -3.72729087366177       -0.01109417444490
H           -3.72254258374817        2.70650804521926       -0.00426616712865
H           -2.01602403723263        3.01784997744985       -0.00334427392165
H           -4.57371027045027        0.18279980230639       -0.00397341673441
H           -3.35887104520527       -2.15810922896711       -0.00075870136540
