25
 energy: -45.114148833835 gnorm: 0.000297929973 xtb: 6.6.1 (8d0f1dd)
N            4.84669870805822       -1.01822479562021        0.08766537054969
C            3.86038919363688       -0.42599895377895        0.05646366626808
C            2.68177385310461        0.31598531922032        0.01748697898275
C            2.60565084626838        1.74042829224483        0.00232817726285
C            1.29280105620661        2.15740389880179       -0.03615817006866
C            0.47745460954722        1.01300244297940       -0.04902790431211
C            1.37777110470283       -0.17379475822073       -0.01787250708727
N            0.95527439650136       -1.43462216900390       -0.04701590315212
C           -0.34070121303290       -1.68219001405016       -0.07637795355433
N           -0.71479171389800       -3.00913162135940       -0.10078363529152
C           -1.29465157497544       -0.63966290980532       -0.03036758519089
C           -0.86301941415479        0.71596021895698       -0.04773359306313
C           -2.09988403940644        1.49039150454313       -0.01434410811512
N           -2.17413550547221        2.81533653618649       -0.03874354251678
N           -3.16963700313974        0.70646758114717        0.05059453558562
C           -2.70793199341259       -0.57384806922223        0.06645463773766
N           -3.56572501239442       -1.59369808557564        0.16858870553142
H            3.46889692324215        2.38317764227066        0.02012503845020
H            0.96330578129411        3.18138756884603       -0.05587639539108
H           -1.49788564730633       -3.24286061109060       -0.69223450406268
H            0.08232155869426       -3.61963845127640       -0.21994293605951
H           -3.07413263069659        3.26356261852801       -0.01075742853312
H           -1.33251284983711        3.36394161493252       -0.06321146035528
H           -4.53117397037058       -1.36860458130631        0.34537297423756
H           -3.22145555645939       -2.50285716534698        0.42760073734780
