27
 energy: -49.353735678855 gnorm: 0.000927061574 xtb: 6.6.1 (8d0f1dd)
N            5.42417193711803       -0.55133412959844       -0.15273567427738
C            4.37949986962511       -0.07225899519839       -0.10272287675689
C            3.12646006255055        0.53505606902143       -0.04106319313594
C            2.89526370223492        1.94517098596187       -0.01473786185975
C            1.54761741701079        2.21444731752483        0.04584273516874
C            0.85917444921101        0.98530907656509        0.06213470963069
C            1.88683499360320       -0.09318368322265        0.01103117336187
N            1.60501627976988       -1.39268227992010        0.04321592465464
C            0.34506398050074       -1.77569409293603        0.08774818203833
N            0.11591231140541       -3.13561319399197        0.12760281559930
C           -0.72486060288878       -0.84620819326126        0.04407627681622
C           -0.44394413839097        0.55384997306004        0.06991175435071
C           -1.71964989392084        1.25567707572502        0.04677047968316
N           -1.86212695471242        2.57903343962810        0.08298977353403
C           -2.73165796196572        0.29566952779740       -0.02455878017478
C           -4.10176780040264        0.53425232883516       -0.09506968569145
N           -5.23625645641100        0.71793251206506       -0.15831104349548
C           -2.12341186247540       -1.00439271970129       -0.05671715404001
N           -2.80379479925609       -2.15013794038314       -0.17699135285785
H            3.68291223432943        2.67794221019406       -0.04096146890402
H            1.11363542513005        3.19818962844342        0.07833417752545
H            0.98031084204218       -3.65284527599840        0.22208051771941
H           -0.60870449382549       -3.44759779535769        0.75805407345143
H           -2.77721762590269        2.99757915026902        0.05869141206004
H           -1.04760261809839        3.16773237978252        0.11220480728403
H           -2.30890734446346       -2.99139703083065       -0.42456644101461
H           -3.79597174951798       -2.10940676837337       -0.35102775317012
