22
 energy: -37.932067352098 gnorm: 0.000224441471 xtb: 6.6.1 (8d0f1dd)
N           -4.55254149073394       -1.26635070357876        0.00064115591571
C           -3.58777667981099       -0.63931946263733        0.00043793059865
C           -2.44369811745031        0.15460194020365        0.00005862628332
C           -2.45724480670448        1.61099119351712        0.00003428797864
C           -1.19012240811198        2.08612182920709       -0.00033834005390
C           -0.29611401101804        0.95851189294635       -0.00059003480208
C           -1.12325087374486       -0.25836524252279       -0.00031803049068
N           -0.62666277799967       -1.51249825116147       -0.00042661198465
C            0.66412055367861       -1.65295704039081       -0.00081318028212
C            1.56535300252389       -0.55901123552242       -0.00113486417006
C            1.05208390842305        0.78243462373733       -0.00100324658151
C            2.19645600254895        1.69248144361197       -0.00139459358404
C            3.31860906528642        0.94903070144926       -0.00175116878042
C            2.95796457497301       -0.46573353486031       -0.00160196099833
N            3.85201794487840       -1.45975770944248       -0.00185025344591
H           -3.36474694263391        2.18796290568027        0.00027819447663
H           -0.88349146675963        3.11515516111701       -0.00044256557904
H            1.02981482043750       -2.67317426163663       -0.00087470992623
H            2.12134980612994        2.76320991906527       -0.00139433542120
H            4.33483692060169        1.29921574327857       -0.00209248790666
H            4.83792440642262       -1.26372014433046       -0.00228767803067
H            3.54706623146372       -2.41770392043039       -0.00179972871545
