24
 energy: -46.189192397758 gnorm: 0.000833376913 xtb: 6.6.1 (8d0f1dd)
N           -4.43031316644491        1.09927858134635        0.00031715223866
C           -3.28553839270589        1.19498949553535       -0.00128002210707
C           -1.89732042325699        1.34224489291768       -0.00051074506375
C           -1.19163599800070        2.56092166497672       -0.00031293837482
N            0.14204382965484        2.41853721925728       -0.00021922909694
C            0.35776546419532        1.10010022122797       -0.00026644393140
C           -0.90948667432423        0.33997785219250       -0.00036372423457
C           -0.90940603408542       -1.05218990069800       -0.00023880169222
C           -2.11008881401664       -1.78685597889075        0.00153693429984
N           -3.04511421771884       -2.45447632217704       -0.00238895154343
C            0.31865551828472       -1.78229692242888       -0.00027084193923
N            0.29677918999359       -3.12682358664823       -0.00015032389190
C            1.52092319320358       -1.04912588361849       -0.00025415715580
C            1.52572483402323        0.37158185126832       -0.00022726993418
C            2.91362396111732        0.74359638970909       -0.00014315659620
N            3.35588587872264        1.98636987666007       -0.00008322319436
N            3.70702313010142       -0.35713187016881       -0.00008606884476
C            2.89469476524392       -1.40416377179600       -0.00015089698161
H           -1.62903633240361        3.54388653045066       -0.00039028742461
H            1.15191609417433       -3.65237825208384       -0.00010966278618
H           -0.58446220265929       -3.61402782447831       -0.00015602973581
H            2.67134089316039        2.72991408234774       -0.00011011084849
H            4.34415278596390        2.17912810163473       -0.00001118866791
H            3.31754837847724       -2.39405846743613       -0.00009011239320
