24
 energy: -41.399651068035 gnorm: 0.000674667162 xtb: 6.6.1 (8d0f1dd)
N           -4.88701372615557        0.88910723810072       -0.00075379143510
C           -3.85204099247407        0.38483923122852        0.00003425186308
C           -2.59715407089707       -0.21520762438138        0.00038080623485
C           -2.32333651009241       -1.60080654605418        0.00075358755097
N           -1.02277552753252       -1.89289860957937        0.00124190089392
C           -0.39424001696827       -0.69674526725657        0.00115407969413
C           -1.33680504374175        0.41760131137858        0.00055990824625
C           -0.88162966801667        1.73357391120278        0.00036732175909
C            0.47827480084317        1.99934157866188        0.00073229697548
C            1.38775249949943        0.93932403928352        0.00133650782192
C            0.94610623666006       -0.39353751845283        0.00154394097844
C            2.10812663775100       -1.26799415144880        0.00223270645519
N            1.94833641196591       -2.58166951685163        0.00256798878495
C            3.24580391328213       -0.46460006348532        0.00242815876928
C            2.83515675153077        0.87864101997116        0.00189207792921
N            3.63471731744810        1.94566572151983        0.00190289409395
H           -3.05669838822973       -2.38913333143435        0.00078468173874
H           -1.59400477335303        2.54601268890936       -0.00007062725590
H            0.82179308715150        3.02473229548285        0.00056659247138
H            2.72088686345107       -3.22580256672812        0.00305788037494
H            0.98902613738496       -2.91365349719328        0.00231301966368
H            4.26509191250181       -0.80145589248262        0.00291539600102
H            4.63479972368725        1.84269553171849        0.00233914292023
H            3.24088407980396        2.87046300469078        0.00151464847028
