21
 energy: -38.206445051830 gnorm: 0.000196568264 xtb: 6.6.1 (8d0f1dd)
N            4.43440514558387        0.91820260512879        0.00104143919754
C            3.42154436426665        0.37407989661505        0.00044426706361
C            2.21138030514322       -0.31404692738938       -0.00008323033923
C            2.06624150167349       -1.76387973576814       -0.00019039806999
N            0.83766498538295       -2.17673824765007       -0.00071374118855
C            0.06029577336401       -1.03650661218249       -0.00100301450895
C            0.92157553014978        0.17632095697145       -0.00059366866574
N            0.45905305664240        1.43354366643039       -0.00076039013532
C           -0.84201236846312        1.60987895826659       -0.00128115230875
N           -1.28572986044802        2.87799001742536       -0.00135656298158
C           -1.78151073387488        0.50859152813533       -0.00166787945904
C           -1.28005439959886       -0.85659043999590       -0.00154762696130
C           -2.43598730100800       -1.73753165536319       -0.00199740481853
C           -3.53935068880477       -0.95782176643740       -0.00232908417174
C           -3.14650234101973        0.43486289908316       -0.00212946541534
H            2.88751781664387       -2.46007396493684        0.00010687326892
H           -2.26507206092954        3.09417776720003       -0.00218604118524
H           -0.60167388957466        3.61542279002872       -0.00129029738712
H           -2.37393886923000       -2.80778997959218       -0.00203210811409
H           -4.56212595754101       -1.28631002095037       -0.00268537286354
H           -3.84721731015765        1.25166805618110       -0.00230038785601
