23
 energy: -41.663949150556 gnorm: 0.000618074168 xtb: 6.6.1 (8d0f1dd)
N            4.72132081386119        0.32882786223851        0.00070085479252
C            3.63649422680823       -0.05193246265162        0.00072105213114
C            2.32838509843207       -0.53279615550086        0.00012120102127
C            1.93693952058360       -1.88465312602567       -0.00015923566294
N            0.60943024810972       -2.08143130809689       -0.00061906046761
C            0.07478851813141       -0.85337105119744       -0.00069564157629
C            1.12533531407263        0.20126134878723       -0.00026820511467
N            0.87863745468045        1.49266410580619       -0.00029912537329
C           -0.40151826907242        1.90250045904498       -0.00072752888309
N           -0.56791148988480        3.23908392950638       -0.00023685023506
C           -1.48279815800814        0.99611990977436       -0.00110930971253
C           -1.21914402429459       -0.39863325551761       -0.00110432168753
C           -2.48785718338386       -1.09180507431215       -0.00153198518172
N           -2.56224678991728       -2.41641658811190       -0.00165802457362
C           -3.49626177768031       -0.10979721667001       -0.00176778390526
C           -2.89605244546974        1.13740886130489       -0.00152756457088
H            2.60232812422495       -2.73127820917542        0.00005205579667
H           -1.47916539195923        3.65706217621192       -0.00290897335953
H            0.25748111909240        3.81253992568658       -0.00141013106497
H           -1.68912279175336       -2.92701137830025       -0.00140193952970
H           -3.44116938508319       -2.90580879813593       -0.00191589834458
H           -4.55261364031821       -0.30103916059795       -0.00207077682768
H           -3.43091722237149        2.07141114323270       -0.00159054907066
