24
 energy: -46.194150773009 gnorm: 0.000769076399 xtb: 6.6.1 (8d0f1dd)
N            5.49252254256791       -0.56133630262968       -0.00032056532645
C            4.41165517646397       -0.17082237098768       -0.00020863210618
C            3.11156923660421        0.33363328361099       -0.00005879390956
C            2.75636295735750        1.71222303300626       -0.00012284684595
N            1.45066932581621        1.93812419353158        0.00001527777831
C            0.88183939725593        0.70938769894349        0.00017404561194
C            1.89754454727889       -0.35977373569566        0.00018713942457
N            1.60607898784987       -1.66177218377424        0.00037400136373
C            0.34201065608935       -2.01544029337055        0.00056742431431
C           -0.71264220614918       -1.08945951985703        0.00054688341681
C           -0.42117291023843        0.29839638199300        0.00034561156782
C           -1.67176532025411        1.04233256827809        0.00042429724834
N           -1.69640983901641        2.36248001431611        0.00031507825552
C           -2.71056059931384        0.10198097224940        0.00103100201971
C           -4.08002773619900        0.36818142108943        0.00253523595841
N           -5.21201456907497        0.57020072461516       -0.00095646664134
C           -2.13711054844887       -1.21039577571191        0.00076990694110
N           -2.83544591172721       -2.33943206516654        0.00107195381616
H            3.44952311635115        2.53559828988686       -0.00031551617478
H            0.15927738781227       -3.08294942258865        0.00077913848424
H           -0.80399789502036        2.84125484667796        0.00006019026562
H           -2.55899609196163        2.88286649613436        0.00044230160153
H           -3.84290778588240       -2.31467904849467        0.00128319720072
H           -2.36797793846089       -3.23028572605606        0.00106259293547
