26
 energy: -50.433389356878 gnorm: 0.000271800241 xtb: 6.6.1 (8d0f1dd)
N           -5.95712651824667        0.81957095065943        0.00047749295194
C           -4.82507791738361        0.62879199708387        0.00033682826354
C           -3.44657787232938        0.37563438797029        0.00050703201995
C           -2.86878554809127       -0.93532005303304        0.00057635528906
C           -1.49277161017190       -0.80305819035870        0.00065746842601
C           -0.45889859951386       -1.79282212261366        0.00069325251481
N           -0.76169321849399       -3.09900285096149        0.00062397436176
C            0.88438871093282       -1.37190551712918        0.00075591877906
C            1.90314251287817       -2.34114957102412        0.00066150018216
N            2.68845241201266       -3.17992399456629        0.00086012942054
C            1.18857582888652       -0.00083235838911        0.00079398719077
C            0.11378458351059        1.02915644807081        0.00075580346568
C           -1.19481564292424        0.60596951220030        0.00067650793152
C           -2.43314861357373        1.31248083261881        0.00057839094498
N            0.62351365135172        2.26749400503506        0.00077696508634
C            1.94938286887361        2.12091285723975        0.00080679723429
N            2.78321576583887        3.15121882369717        0.00082837214479
C            2.36607684527185        0.72089447764904        0.00076278451316
C            3.69763742661372        0.32103572188377        0.00051907433080
N            4.82223859184096        0.07906450988254        0.00128918384364
H           -3.44770437342009       -1.84208881267119        0.00053638492755
H           -0.02370649153820       -3.78499998963595        0.00061957094854
H           -1.71835018475258       -3.40444916749835        0.00052763880279
H           -2.53692145508529        2.38010675418786        0.00054494604149
H            2.40835778030939        4.08544858494636        0.00083729841819
H            3.77909528780402        3.00198678505603        0.00086614966667
