22
 energy: -42.727487154747 gnorm: 0.000413545494 xtb: 6.6.1 (8d0f1dd)
N            1.44944184563547        0.04648103162048       -0.04079236236861
C            0.30263353462375        0.03062794270971       -0.01148524876176
C           -1.10041340518205        0.02032299884317        0.01159587520328
C           -1.92642866354264        0.75253572818965       -0.83295074921286
C           -3.27905465519872        0.46556721139286       -0.48806075003206
C           -4.46879936801711        0.94464771115453       -1.03522698640692
N           -4.50958521098329        1.81525650447097       -2.04697445750706
C           -5.73558538136674        0.47854969100183       -0.48290874153644
C           -6.92877885128291        0.97064112737064       -1.04495996338186
N           -7.85771163579909        1.41374356666655       -1.55360216865747
C           -5.72456930921026       -0.41242220178028        0.55292524709394
C           -4.44865998513705       -0.92955435361547        1.14369780335234
C           -3.24245523149062       -0.46883310189942        0.59802726935335
C           -1.90562155508653       -0.73708524255142        0.89880737115615
N           -4.75734072046178       -1.75655033686359        2.10778139008564
C           -6.13204531339105       -1.75550391458873        2.11787925442755
N           -6.74022359977174       -0.99780964662606        1.24189122157890
H           -1.58510262641864        1.41608006224120       -1.60718220503212
H           -5.39569748031279        2.13296990290165       -2.40911705490806
H           -3.65930047683478        2.16219038762050       -2.45731221389028
H           -1.55019405292408       -1.39900979697649        1.66552227113112
H           -6.67147785784727       -2.35931527128227        2.82438519831322
