26
 energy: -45.624481738333 gnorm: 0.000744243996 xtb: 6.6.1 (8d0f1dd)
N           -5.21064098384623       -0.65539114575482        0.00011746403989
C           -4.06106908330685       -0.62137708214860       -0.00102086611181
C           -2.66981259228499       -0.50979458830028       -0.00067070030048
C           -1.73545625354448       -1.51630447257546       -0.00124449129163
C           -0.43207970380704       -0.92085042580426       -0.00099286787118
C            0.81964903196109       -1.52538214997534       -0.00138630480066
N            0.99210014561280       -2.86289140758074       -0.00179885765851
C            1.98379502164384       -0.67325734994267       -0.00083625585642
C            3.25236367365729       -1.28385957238616       -0.00025699763450
N            4.26496477061360       -1.82694271467902       -0.00328275005733
C            1.85806153925816        0.69639843132698       -0.00013929125347
C            0.53115421227864        1.35135471972222        0.00027411001609
C           -0.59726941714302        0.50042940306684       -0.00013858341746
C           -1.97323655515653        0.76488952741781        0.00011730003162
N           -2.58996092929241        1.95563026738433        0.00080654680166
C            0.75328273927737        2.69884128633925        0.00096639059616
C            2.17291456857956        2.92005660322550        0.00104732144255
C            2.83796113445148        1.72809013307822        0.00043253020482
H           -1.95711023207370       -2.56821172495434       -0.00185839798895
H            0.20003341263029       -3.47868647373353       -0.00321253194411
H            1.91891449960613       -3.25339947936702       -0.00301475397619
H           -3.59434293489056        2.00505664540700        0.00107676975459
H           -2.04739152646881        2.80031852263277        0.00147191267133
H            0.02611157042005        3.49030887723475        0.00138408118330
H            2.62647138278037        3.89564283693103        0.00154950400193
H            3.89960369704393        1.57153859053554        0.00033812581876
