25
 energy: -45.916105827414 gnorm: 0.000772313895 xtb: 6.6.1 (8d0f1dd)
N            4.92081068673046       -2.02690285668643       -0.00079411791172
C            3.94318751696772       -1.42349842838457       -0.00117278525091
C            2.76071882592111       -0.67324742327233       -0.00020871230374
C            2.68761979869285        0.71619734531875        0.00064237906920
C            1.31694543852392        1.08282519334806        0.00102975625335
C            0.69910091925705        2.33772661553580        0.00176242924471
N            1.40702212215297        3.47845105494736        0.00228565716864
C           -0.72829155480684        2.41719502441632        0.00197289795697
C           -1.47706988203021        1.28188738129745        0.00146345132787
C           -0.84799363728362       -0.05913954586471        0.00068539903893
C            0.55623064981941       -0.13166645532659        0.00048451422601
C            1.44504217258488       -1.20340297609079       -0.00021692367208
C           -1.89424550351933       -0.94840328103803        0.00037690013558
C           -1.91120451226337       -2.33622448750810       -0.00017353416746
N           -1.98433963430774       -3.48520733951952       -0.00134164187725
C           -3.10820941645582       -0.10524061735304        0.00093690110437
N           -4.34457317147079       -0.60275541317427        0.00084982463008
N           -2.83762304969043        1.17926809070551        0.00156103020372
H            3.53522231375456        1.37818136456732        0.00082522221777
H            2.41132611560421        3.45344730603133        0.00213714662195
H            0.94085390788407        4.36890676439669        0.00279013925511
H           -1.20448072490114        3.38551874034398        0.00252676699901
H            1.18963321653290       -2.24699592118955       -0.00080047674775
H           -5.12628139127266        0.02919439929141        0.00127506351346
H           -4.49553397822416       -1.59679877309208        0.00034951896419
