28
 energy: -53.891920716519 gnorm: 0.000556493749 xtb: 6.6.1 (8d0f1dd)
N            5.84991782373317        0.35450001618903        0.00359075861944
C            4.71948136027239        0.14484796263321        0.00352938423522
C            3.33909136343840       -0.06479939367817        0.00249154273911
C            2.67228075961056       -1.29774983599186        0.00154447891577
C            1.28397131859346       -1.07914192665284        0.00086042353371
C            0.18754160868306       -1.96895014335984       -0.00008073405529
N            0.36016714608285       -3.30486513574959       -0.00042008892775
C           -1.12710554096823       -1.42961145603307       -0.00051755878915
C           -2.21540238770993       -2.31884175000821       -0.00052372832530
N           -3.06298450652819       -3.09537155526783       -0.00346988539536
C           -1.32783403960853       -0.04624012272656       -0.00015595563378
C           -0.18030665551860        0.87986583008972        0.00087758572876
C            1.08280976924857        0.33612552128703        0.00136454728732
C            2.36540744179008        0.96985403828004        0.00236212307508
N            2.53385236125258        2.28763731285595        0.00307252515581
N           -0.56738027014865        2.16264954702311        0.00120855720674
C           -1.91300527162667        2.12744431491317        0.00046887972854
N           -2.65127276940994        3.23762326421944        0.00055743303284
C           -2.44348416526624        0.78841004880156       -0.00036536237673
C           -3.80386130907519        0.50180614344781       -0.00112247809915
N           -4.94485102321026        0.35261614960243       -0.00226757036988
H            3.17506217479711       -2.24897597205047        0.00145638306916
H            1.28135860094643       -3.70232986267048       -0.00015843500854
H           -0.44087158737144       -3.91397525207538       -0.00112483364171
H            3.45064652117365        2.70256391695476        0.00377564159340
H            1.70077547183297        2.85932940298615        0.00285244961277
H           -2.20161940628533        4.13615331381219        0.00121016953179
H           -3.65496279092774        3.17305016856876       -0.00003743424278
