23
 energy: -37.655913631957 gnorm: 0.000567524072 xtb: 6.6.1 (8d0f1dd)
N            4.86567295623701       -0.99036394415803       -0.00045408726399
C            3.75581227791495       -0.69121872427882       -0.00274096797525
C            2.40516537250189       -0.32767215349480       -0.00083065374285
C            1.90906963732310        0.95387035485353       -0.00005424170646
C            0.47790605035180        0.86529859361470        0.00042778462561
C           -0.48748192471653        1.85320725228804        0.00126353264694
N           -0.19483845094138        3.16947908322281        0.00065023689428
C           -1.88134732552304        1.46708969567876        0.00162862169780
C           -2.23289125063319        0.16522545129151        0.00133872730962
C           -1.23881828518631       -0.91217239906929        0.00062899372609
C            0.13681584963883       -0.53715695395752        0.00018675298155
C            1.30425010952065       -1.25848849215366       -0.00039325026661
C           -1.91463538413587       -2.09090439040233        0.00051770418128
C           -3.34305961443578       -1.80673011108494        0.00120328417317
C           -3.54226004281063       -0.47471194361363        0.00168129323737
H            2.49652991330332        1.85415567031854       -0.00031725986634
H            0.76164472095658        3.47488394855209        0.00339954997240
H           -0.92481732511361        3.85922252075028        0.00533952513836
H           -2.62458034121403        2.25368201498489        0.00210495467830
H            1.41145482427698       -2.32694437066373       -0.00079901228230
H           -1.49601539783659       -3.08003469843233        0.00002688839035
H           -4.09980995455913       -2.57048612406494        0.00129448685093
H           -4.47633170071901        0.05385680471889        0.00221195969978
