26
 energy: -49.636994845589 gnorm: 0.000828109440 xtb: 6.6.1 (8d0f1dd)
N            3.69350761116596        2.86881824095005       -0.10106304249029
C            2.94246601423384        1.99785034058604       -0.06752440920292
C            2.09389769414639        0.89418041633352       -0.02670894534692
C            2.54784773842444       -0.45574426864664       -0.01231807390342
N            3.82609848444243       -0.84013957015413       -0.03575364751712
C            1.42373531301723       -1.33685067788556        0.02814777929509
C            1.50656622430225       -2.72571367198468        0.04668045379746
N            1.60582639167895       -3.87265336798295        0.06290952461366
C            0.27154761661961       -0.54903527353633        0.04087160608919
C            0.69308307091588        0.87518140201297        0.01079425766802
N           -0.13783178054860        1.89881404072265        0.04231506632761
C           -1.45215162155324        1.66564410203221        0.07497821394798
N           -2.23581266361691        2.77353264810039        0.14259841182021
C           -1.97608206639397        0.36067197408314        0.00776674948903
C           -1.09310313386287       -0.76848131270497        0.03302010591861
C           -1.94664767079591       -1.91057055182432        0.01550093581264
N           -3.21683049624858       -1.57366886862607       -0.04313240657333
C           -3.26920128195512       -0.20769988668015       -0.07318383641755
N           -4.46098480784977        0.40374680822539       -0.17120680397701
H            4.06247365107273       -1.81837816245659       -0.02653365195010
H            4.55900523547283       -0.15102900725085       -0.06943856992115
H           -3.15251138283141        2.70265792545389        0.54917984980073
H           -1.73148500772050        3.63285086172427        0.30039309664318
H           -1.64474816647050       -2.94134324850627        0.04290106822827
H           -4.51449673661941        1.35395854594032       -0.49665023872763
H           -5.25244362802544       -0.19796450062524       -0.33584743322416
