24
 energy: -42.181487487061 gnorm: 0.000483050117 xtb: 6.6.1 (8d0f1dd)
N            5.52068644997495       -0.79177047281205       -0.00052713089541
C            4.39903119021374       -0.54462165208730        0.00007721831265
C            3.03120359456200       -0.24450566580270       -0.00047884444764
C            2.47444024921320        1.01278215032734       -0.00061686271743
C            1.04753613528851        0.85842991559393       -0.00085942397061
C            0.03752087087286        1.80328629705618       -0.00098838084365
N            0.26301057191770        3.12913680134452       -0.00092121067453
C           -1.33739733081755        1.34844658017297       -0.00119067872741
C           -1.61460941491338        0.03001357754052       -0.00127320476868
C           -0.57730363707797       -0.99958055595691       -0.00117396274922
C            0.77389788063711       -0.55618957066304       -0.00094486027483
C            1.97804994172894       -1.22415760628278       -0.00073300508880
C           -1.19799619210827       -2.21653611405830       -0.00130007235379
C           -2.62312558699014       -2.01502825516066       -0.00146426955652
C           -2.89985605505639       -0.67814301327121       -0.00136659378441
C           -4.13766055566583       -0.03764901531945       -0.00113310865662
N           -5.13829836541135        0.52934822272873       -0.00215057702888
H            3.01804223584305        1.93988530944091       -0.00046811098568
H            1.20217500028945        3.48525894313484       -0.00078787237810
H           -0.50303947215288        3.77951555307962       -0.00104544797062
H           -2.12524958974503        2.08987527139344       -0.00127267765598
H            2.13282707590395       -2.28678001518399       -0.00068756689897
H           -0.72629819479246       -3.18132702665234       -0.00125481867597
H           -3.34903680831424       -2.80826225486225       -0.00152059390883
