27
 energy: -50.162814450946 gnorm: 0.000892915069 xtb: 6.6.1 (8d0f1dd)
N            5.42772685979815        0.03357043372437       -0.00304900226032
C            4.30137787158968       -0.19410102325202       -0.00028122074248
C            2.92459675167737       -0.43333501137711        0.00060866286197
C            2.28295981655376       -1.64613555979825        0.00202231323190
C            0.87116698501683       -1.41488007435290        0.00245984489711
C           -0.17684786737116       -2.33570525772102        0.00291398489582
N            0.02197026017605       -3.66970912962864       -0.00316278142098
C           -1.51080263139528       -1.83525091173593        0.00061821193618
C           -1.74077196308506       -0.49422318922291       -0.00007770660664
C           -0.66292963951843        0.49223940525468        0.00105419287629
C            0.65279723095247       -0.00037832070295        0.00127257822010
C            1.92653722035207        0.62299773012553        0.00019783343020
N            2.24205652360590        1.91246315628053       -0.00108550386878
C           -1.26787452416260        1.75144775774597        0.00115544888858
C           -0.62720423047025        2.98239168419656        0.00308761766126
N           -0.05316675273680        3.98397591482117        0.00750742565957
C           -2.69023935923295        1.57605396272416       -0.00039590048698
C           -2.98826125369297        0.23613903144771       -0.00139012489131
C           -4.24924039587922       -0.36162620598129       -0.00398932286372
N           -5.27514774709690       -0.88050296460798       -0.00509224353269
H            2.77267666213876       -2.60317432125313        0.00240250988985
H            0.94962770049657       -4.05252719485230        0.02156158725896
H           -0.76146249349286       -4.29809866724444        0.02181942994775
H           -2.33563792051947       -2.53412271049158       -0.00044478957377
H            1.53603064227943        2.63907385228112        0.00003444621126
H            3.21404493504280        2.18048384654012       -0.00208486842032
H           -3.39814209902596        2.38534355608047       -0.00102138899873
