27
 energy: -49.366925861135 gnorm: 0.000674360712 xtb: 6.6.1 (8d0f1dd)
N            4.23014861851919       -2.37699342561896       -0.00316209491596
C            3.30261198451040       -1.69524704925782        0.00203897357995
C            2.24467266769648       -0.79049791981545        0.00072131701959
C            2.42382625616621        0.62081901691325        0.00013644474480
N            3.61387453002328        1.24378912904077        0.00040132056663
C            1.15726997524770        1.25584102182283        0.00044786307621
C            0.94611161438597        2.62152085550566        0.00064581192703
N            0.73467774800767        3.75921718629628       -0.00005414773512
C            0.16602304666910        0.24519296087918        0.00077842443054
C            0.86589892911481       -1.05370970815293        0.00068467236451
N            0.26316950418568       -2.23434159354382        0.00105350987991
C           -1.05834824254919       -2.25271123746576        0.00135969770749
C           -1.82742593352716       -1.09785014842975        0.00149171754851
C           -1.21053154116580        0.18638324596625        0.00121943258287
C           -2.28448414215392        1.17361376440669        0.00155213985278
N           -2.12723215613226        2.49279391483319        0.00150788263951
C           -3.50058316836949        0.48699668709629        0.00194239055774
C           -3.25341759268149       -0.88749464729773        0.00190350825441
N           -4.16671377037022       -1.86355796175628        0.00215242813517
H            4.45970025257466        0.70072143122119       -0.00139912900685
H            3.66613505570770        2.24708535699570       -0.00161040011568
H           -1.50497876111068       -3.23996517403228        0.00156403694177
H           -2.93408957352861        3.09397961096762        0.00175242261513
H           -1.20837680406932        2.91753428380078        0.00120890562491
H           -4.47169837201661        0.94561093583893        0.00223041942914
H           -3.87809917631508       -2.82571768910948        0.00233864947826
H           -5.14829210801899       -1.64861298440435        0.00267230131675
