24
 energy: -41.386455939469 gnorm: 0.000940710403 xtb: 6.6.1 (8d0f1dd)
N           -4.79842320615646       -0.48232505254591        0.00488714559388
C           -3.67580531364599       -0.23145595575487        0.00290000319110
C           -2.30807403261866        0.04117770347236        0.00014504692455
C           -1.69832136280735        1.28272114885339       -0.00089982351306
C           -0.28360738796468        1.10772448409275       -0.00266637319709
C            0.77514270115341        2.02711530161264       -0.00315515771182
N            0.56258339657711        3.36310265892918       -0.02243265126752
C            2.11017127847649        1.53907852663727       -0.00231518337479
C            2.36955629862593        0.19556445638410       -0.00097280815180
C            1.26617724109429       -0.79317195949561       -0.00175579029635
C           -0.03652981434493       -0.29257703892431       -0.00224492952037
C           -1.27263945275076       -0.96788092330941       -0.00089302018570
N           -1.40448509306403       -2.29041010288790        0.00079835617434
N            1.71578478959066       -2.02839149416318       -0.00123119865173
C            3.08844521178917       -1.90918432517966        0.00000760791308
C            3.53419400594224       -0.61374805841392        0.00059264121526
H           -2.22824978578361        2.21923027635162       -0.00103027058006
H           -0.36913360486070        3.73090685201265        0.03670200970133
H            1.33708949107310        3.99914085415849        0.04249123569453
H            2.91807002336498        2.25924760528439       -0.00244091253861
H           -0.55024189623806       -2.83164889772892       -0.00035619242795
H           -2.30619027985291       -2.73661176984758        0.00138855530952
H            3.68332920726231       -2.80619836244125        0.00025335569840
H            4.55273559443831       -0.27958459049627        0.00170126330085
