24
 energy: -46.192728942041 gnorm: 0.000578421066 xtb: 6.6.1 (8d0f1dd)
N           -4.47576221311694        1.48284538753028       -0.00602105287488
C           -3.41209121067214        1.04536065643778       -0.00534015197489
C           -2.16665690971461        0.41981212411988       -0.00472613209772
C           -2.01169713253275       -1.00606106210909       -0.00618846728944
N           -3.02507080625456       -1.87720684594996       -0.00831087573037
C           -0.63257702943637       -1.32538095893287       -0.00500276620657
C           -0.05661784091296       -2.58455244175814       -0.00564451997204
N            0.49810126276768       -3.59779501767018       -0.00645910675836
C            0.08768653578518       -0.11241593843414       -0.00285423748518
C           -0.89465557548118        0.99594415056656       -0.00269567413772
N           -0.57388847025750        2.28697114009266       -0.00091232155242
C            0.70061014288097        2.61321522479302        0.00083676882105
C            1.72283520867065        1.65944154473482        0.00092748674569
C            1.41056780612854        0.26495480169719       -0.00094061234680
C            2.70412728521837       -0.39503863976151       -0.00017756069368
N            2.96288901730156       -1.68774368913251       -0.00123192937209
N            3.70443152576829        0.52059015433698        0.00193819885676
C            3.13807611840353        1.71839171999671        0.00258092014817
H           -2.85101269897924       -2.86785969002283       -0.00929144222278
H           -3.97327490351170       -1.53942962366412       -0.00897130095153
H            0.91880067923931        3.67284441045571        0.00221533902988
H            2.22671890531204       -2.38543776076282       -0.00285180862544
H            3.92887216515758       -1.97747342128964       -0.00044017036573
H            3.74954707663625        2.60314887282622        0.00420913445606
