24
 energy: -46.191274625280 gnorm: 0.000959721030 xtb: 6.6.1 (8d0f1dd)
N            1.43730718429963        0.04713508527865        0.09227385768256
C            0.29102259818194        0.00869542598571        0.03749385902842
C           -1.10887366231467       -0.02027442643728       -0.01876206558659
C           -1.96396229195846        0.79587957484853        0.79958742668969
C           -3.27030388909561        0.50414245972852        0.47845247281894
C           -4.52764158015527        1.00563589267836        0.96863861307139
N           -4.56581669865401        1.94271242563665        1.92514462706058
N           -5.69294558262814        0.57973470852935        0.51320388533856
C           -5.68710024760371       -0.35199003844654       -0.43832840295747
C           -4.45245604386933       -0.95756741155779       -1.03540576104184
C           -3.25104640941463       -0.50610451574319       -0.55321463873302
C           -1.88476085959823       -0.80933963146709       -0.83892558160251
N           -4.76031041296999       -1.86899525340073       -1.97169299024624
C           -6.08987992575639       -1.90002888354705       -2.02662937728964
N           -6.75020030030989       -2.69905153944748       -2.85438781607929
C           -6.73000701095210       -0.97440185874633       -1.09245127382261
C           -8.10663157235970       -0.83194667197839       -0.97162980931593
N           -9.25482494217998       -0.77008257100456       -0.92582023944425
H           -1.60139835704630        1.50097104579373        1.52657499448578
H           -3.72611004834824        2.31984831841576        2.32485133653446
H           -5.46734420629541        2.26318639219034        2.23652388669396
H           -1.54592698575208       -1.52430205681136       -1.56314444004597
H           -7.75672519445571       -2.69803875339272       -2.87091184913302
H           -6.23025356076369       -3.30644771710504       -3.46574071410594
