28
 energy: -53.889871989045 gnorm: 0.000590978094 xtb: 6.6.1 (8d0f1dd)
N           -5.62731564045183        0.51231459768558        0.00211280457724
C           -4.52844002905354        0.17428382977606       -0.00028271815720
C           -3.18004432013504       -0.18918257669856        0.00032266827569
C           -2.65482294998536       -1.48106089888711        0.00084600085064
C           -1.25178244481010       -1.40283645498454        0.00039226193567
C           -0.25362704983928       -2.40055994617169        0.00034361036768
N           -0.54042237051916       -3.71345612127404        0.00089006792710
N            1.05194316809892       -2.09825877819182       -0.00022600701919
C            1.40713764819857       -0.83406286105748       -0.00068594318494
C            0.45981104981942        0.31276881802134       -0.00071375126471
C           -0.88361130911144       -0.01525258938154       -0.00018848829942
C           -2.10394096193536        0.74710207132813       -0.00013155175120
N           -2.24593501474247        2.06851571447226       -0.00065345149267
C            1.22774741738445        1.48539463188354       -0.00141045008045
C            0.76847179485412        2.79170614425512       -0.00186948563907
N            0.36642084314249        3.87479013032003       -0.00204274120284
C            2.60819182240992        1.10724645569433       -0.00172962407561
N            3.63759094434957        1.95825635992683       -0.00235964293276
C            2.70925083879617       -0.30658802969788       -0.00146100123560
C            3.91952834273232       -0.99746339742791       -0.00229861969213
N            4.95222963928658       -1.50388088438244       -0.00086350555796
H           -3.24816822289649       -2.37797940462092        0.00123781560774
H           -1.48682057182317       -4.04506069073782        0.00104734255651
H            0.22768101760660       -4.36174459071633        0.00067901907315
H           -1.44934963737972        2.69136375006468       -0.00116762230278
H           -3.17314987994573        2.46371920455988       -0.00062865062452
H            3.48096088713764        2.95199250301145       -0.00265729226239
H            4.57933948151191        1.60324933523083       -0.00262901379606
