26
 energy: -51.219040399442 gnorm: 0.000358897575 xtb: 6.6.1 (8d0f1dd)
N            6.01553409034167       -0.25415673258561        0.00033530239872
C            4.87115887781809       -0.33369389627552       -0.00038184806639
C            3.47290662221487       -0.45231305675126       -0.00008696622763
C            2.77111349175413       -1.71746001463521        0.00003533803621
C            1.41689223016142       -1.46116999786374        0.00001931622744
C            0.30437902306883       -2.33977726066158        0.00003617081621
C           -0.96948187917143       -1.83058619087884        0.00001225305773
C           -2.09111614986654       -2.68946459854801        0.00008594758316
N           -2.99127064877661       -3.39900488126970       -0.00015102030642
C           -1.16584255052133       -0.41426887909462        0.00001099343396
C           -0.01399171034660        0.50411021988245       -0.00002675867490
C            1.24535317615656       -0.02599400903015       -0.00005350139554
C            2.55913588915443        0.56990332187358       -0.00009890123093
C           -0.52060257600841        1.83727657818158       -0.00004770832408
C            0.23279413974939        3.01306462481784       -0.00026817033552
N            0.82979968262566        3.99473115985203        0.00034068701128
C           -1.91073217638055        1.76644646789145        0.00004214928481
N           -2.78859707994637        2.76768942963061        0.00005811439767
C           -2.30862252280794        0.34732400073426        0.00005148089832
C           -3.64986889988608       -0.03812444950726        0.00005933027504
N           -4.77888834746352       -0.25307509948995        0.00024567015745
H            3.25180560494940       -2.67893531357982        0.00005460198052
H            0.46488968492021       -3.40766241742371        0.00007699964400
H            2.76241776236604        1.62426235407131       -0.00022289593098
H           -2.46925657985207        3.72301365522078        0.00007182145628
H           -3.77794187345327        2.57691950273922        0.00007433193332
