27
 energy: -50.152058361026 gnorm: 0.000190306997 xtb: 6.6.1 (8d0f1dd)
N           -5.90337304741217       -0.06513212243864       -0.00112068511148
C           -4.77484714295490        0.15516149045013       -0.00070167984351
C           -3.39177964896627        0.34533485236151       -0.00048486505702
C           -2.68316987757750        1.52752351312610       -0.00032413988904
C           -1.28846934253807        1.22391571425471       -0.00003398225703
C           -0.19549322669006        2.07310941649031        0.00026061461461
C            1.09980442017520        1.53860181167714        0.00054943064173
C            2.20298872368078        2.41846311622026        0.00090527808573
N            3.07263123828615        3.16655130753239        0.00132991682124
C            1.28788512696245        0.15235372061308        0.00049827624444
C            0.13321708545121       -0.77528308191912        0.00021207747929
C           -1.14526706430415       -0.19837765213355       -0.00005310536940
C           -2.44659377616632       -0.75260496921360       -0.00035705806002
N           -2.79777543810859       -2.03661130528226       -0.00051921797975
C            0.62448337845216       -2.06425825761943        0.00029697072731
C            2.03944220843562       -1.99659248931521        0.00058172815812
N            2.88676250299578       -3.03197735808325        0.00073345964535
C            2.44732947359659       -0.62744596654331        0.00066474418600
C            3.78478245532867       -0.23817965482336        0.00080328004810
N            4.91497047102189       -0.02186098405903        0.00134447320877
H           -3.10602483243426        2.51540818513250       -0.00037923914165
H           -0.32802408990612        3.14509243374756        0.00026372066275
H           -2.09634486586162       -2.75645142012941       -0.00043553165354
H           -3.77221020191595       -2.29280765000210       -0.00077016712409
H            0.07145098200255       -2.98548353126204        0.00017679754775
H            3.87871473764026       -2.85982860531958        0.00094184770347
H            2.55217772790659       -3.97931509156175        0.00068072901188
