23
 energy: -42.461636840407 gnorm: 0.000798143376 xtb: 6.6.1 (8d0f1dd)
N           -5.16931909118194        0.67868959600371       -0.00313383378857
C           -4.02059539690118        0.64732739420690       -0.00077870468022
C           -2.62507309387288        0.56240250351255       -0.00080602615032
C           -1.71050918541667        1.63646174921402       -0.00067638228613
C           -0.39294046760648        1.14785015852039       -0.00025984536506
C            0.86047719421883        1.78827845817837        0.00014503435992
C            2.01784801101073        1.03153136935416        0.00053568075925
C            3.28115242612439        1.65855073308129        0.00105550026593
N            4.31118095684973        2.16436691135893        0.00095003766431
C            1.95337242114913       -0.38849905153854        0.00053895774512
C            0.63706223446239       -1.05174204256438        0.00015174007478
C           -0.47985426669214       -0.27203994211575       -0.00022757928512
C           -1.88947958768126       -0.64355030854213       -0.00067674644402
N           -2.27720070552438       -1.90208721640653       -0.00065163309590
N            0.76906638676519       -2.40654581147888        0.00024450181798
C            2.07458966607703       -2.61623960949240        0.00062131890835
C            2.85692815124112       -1.42420783576431        0.00081358436821
H           -1.99724391789712        2.67351763541022       -0.00062738258040
H            0.92002989010973        2.86655948463608        0.00018275263025
H           -1.54580959582990       -2.60650464177099       -0.00036153492725
H           -3.25119270744051       -2.16357808520617       -0.00086724461821
H            2.45798440983395       -3.62208434433624        0.00080209654218
H            3.92753165790223       -1.37399111856030        0.00112030378496
