24
 energy: -42.179245261064 gnorm: 0.000694125046 xtb: 6.6.1 (8d0f1dd)
N            5.73056666161898       -0.84475252585739       -0.00056522889506
C            4.63956014339947       -0.48631028793250        0.00098524348059
C            3.30432604189612       -0.06439161242354       -0.00020174569707
C            2.84716002712517        1.22509221669593       -0.00074174684556
C            1.40520971531897        1.17894003703918       -0.00095954866576
C            0.47629572839414        2.18072884511537       -0.00128392670054
C           -0.91046959886650        1.87608943500136       -0.00136016220271
C           -1.32250619343742        0.57631610545003       -0.00111041937221
C           -0.36490453244440       -0.54176338621957       -0.00076537693414
C            1.02508221251823       -0.21823567139183       -0.00070174538775
C            2.16799251284342       -0.97001176285339       -0.00034304427382
C           -1.06732331866470       -1.70428467759321       -0.00056019162311
C           -2.48867649251350       -1.38241368098670       -0.00082667889201
N           -3.46239595171905       -2.30618023157540       -0.00077142330076
C           -2.63901566571619       -0.00251308491558       -0.00124372124005
C           -3.84762927606044        0.68822102853085       -0.00191782365712
N           -4.86201280127323        1.23216601433744       -0.00153877670262
H            3.44216233322819        2.11894240358884       -0.00073851997962
H            0.78388218678871        3.21689685977537       -0.00148388350006
H           -1.63149007290082        2.68026717860857       -0.00159777664907
H            2.25230134027170       -2.04131989947843        0.00000399823568
H           -0.68100214487971       -2.70659176801363       -0.00026981891375
H           -3.24136801042530       -3.28575704012388       -0.00049133592640
H           -4.42627615530186       -2.01928465087783       -0.00099096105710
