22
 energy: -37.937755268952 gnorm: 0.000212691846 xtb: 6.6.1 (8d0f1dd)
N           -5.09855201668989        1.22027208182966       -0.00089808902837
C           -4.04113758100181        0.77112443723754       -0.00078095352395
C           -2.74799350765580        0.23579559608047       -0.00053088191593
C           -2.40672766112243       -1.09179841473888       -0.00008365465859
C           -0.96948358234434       -1.17533802807663       -0.00016155637236
C           -0.13266467928935       -2.25921659816314        0.00013132180538
C            1.27289838689367       -2.09187762595952       -0.00007117314581
C            1.80443245596348       -0.83380897708286       -0.00054580880041
C            0.94577143724582        0.37367963805805       -0.00088109836727
C           -0.46681897492303        0.17991832006155       -0.00067961866511
C           -1.53728524842359        1.03374071706320       -0.00087494657986
C            1.79594697539307        1.42794855877933       -0.00133572486480
C            3.14050759219282        0.83317953770153       -0.00125531946190
N            4.27191929391024        1.54615157783312       -0.00158688484818
N            3.12419148023799       -0.47988147098927       -0.00079513304074
H           -3.08100591485106       -1.92779009463520        0.00025056081705
H           -0.53886721598467       -3.26139538775579        0.00047835124689
H            1.92085185141025       -2.95390740764714        0.00014083572490
H           -1.52172438772821        2.10845026029641       -0.00124262809864
H            1.58662167153524        2.47973193176827       -0.00168841704067
H            5.15036266821586        1.05777479013384       -0.00153109935781
H            4.25421371711569        2.54965505390544       -0.00201756442384
