22
 energy: -37.923930792393 gnorm: 0.000705379293 xtb: 6.6.1 (8d0f1dd)
N            5.08861123086856        1.17329186087981       -0.00059029792020
C            4.00430526246545        0.79376639361416       -0.00096853166941
C            2.68628155924582        0.32232998362364       -0.00026419309051
C            2.32111013168984       -1.07572545922714        0.00024785762124
C            0.95046786768267       -1.15808979320310        0.00059089406417
C            0.05532254457207       -2.27462433474396        0.00108332452274
N           -1.23003220690857       -2.16207814060761        0.00131787139023
C           -1.75411646018771       -0.90313136597199        0.00108237744524
C           -0.93623115182920        0.35076545975021        0.00060332565820
C            0.42457101797386        0.18860038562388        0.00035593981519
C            1.54288722524047        1.08640033349907       -0.00013954215214
C           -1.82683097114192        1.44058139791938        0.00048087549320
C           -3.10752122367961        0.93010204842042        0.00085757771474
N           -4.26572225705334        1.60731554325586        0.00086565247030
C           -3.05615193654523       -0.53685182942293        0.00122339996276
H            3.02519507000102       -1.88804298087663        0.00025978395051
H            0.45445818314031       -3.28170332781715        0.00125871743478
H            1.48920281440154        2.15878933130807       -0.00043704996920
H           -1.55525110931421        2.47823069803992        0.00015195812386
H           -4.26976959733494        2.61222443467796        0.00069106899754
H           -5.14271062551748        1.11753549774613        0.00125705469550
H           -3.91766141366937       -1.17596391898801        0.00153728894125
