23
 energy: -42.448083726898 gnorm: 0.000782568312 xtb: 6.6.1 (8d0f1dd)
N            5.75746792528728       -0.71258960766472        0.00095750891287
C            4.63884457301422       -0.45411673466410       -0.00080834681985
C            3.27469436291489       -0.13261434461000        0.00002087575674
C            2.75467205176030        1.20911766138267        0.00035909871890
C            1.37611416029729        1.13455368640374        0.00035002721297
C            0.36471019394053        2.13633212175142        0.00042615674929
N           -0.90504532498313        1.87036551780221        0.00024884360676
C           -1.27334461390651        0.57023125873100        0.00017367848281
C           -0.32467455025608       -0.58200050165959        0.00003851958230
C            1.01064543369202       -0.26058609100274        0.00013130934988
C            2.22425898263611       -1.02409650301101        0.00003069158800
C           -1.07637526978747       -1.76983789937628       -0.00013304517263
C           -2.41203594938242       -1.42847176805072       -0.00024080989789
N           -3.48531549778857       -2.22437721733821       -0.00053022683120
C           -2.54045562982166        0.04795771554193       -0.00029551040946
C           -3.77675561117347        0.68663384241514       -0.00167427308977
N           -4.83937830916598        1.12809188370683        0.00177432008407
H            3.35828403978684        2.09853140396528        0.00037514126456
H            0.63569401901137        3.18455912669102        0.00054254524143
H            2.29384383471269       -2.09557386264906       -0.00024861544972
H           -0.67931476306577       -2.76634302057379       -0.00031931984545
H           -3.38314251093067       -3.22462309457412       -0.00061920444357
H           -4.40873998629178       -1.82284096631689       -0.00062298169109
