23
 energy: -42.450922548525 gnorm: 0.000511806022 xtb: 6.6.1 (8d0f1dd)
N            5.14603474536672        1.27954715209656        0.00241266052964
C            4.09772059252457        0.81212216250305        0.00164759739580
C            2.82700736950272        0.21975751384450        0.00091823120812
C            2.60621101394390       -1.21186844850390        0.00008111541565
C            1.25197633584289       -1.43612629736982       -0.00048310050812
C            0.46997740023315       -2.63275706185094       -0.00135286923592
N           -0.82193613364050       -2.64374858198717       -0.00176864382113
C           -1.46538651571350       -1.44478415542650       -0.00135948260448
C           -0.77061378178687       -0.12823905391568       -0.00045732787392
C            0.59326915517338       -0.14620023480463       -0.00002244216458
C            1.61680477500244        0.86586897613395        0.00086279168965
C           -1.77579930935994        0.87963167528270       -0.00029159495240
C           -1.57754335016682        2.25906449511538        0.00037825701089
N           -1.44474860215294        3.40181087327354        0.00105601737002
C           -3.01290716061117        0.23123679175973       -0.00099794647953
N           -4.21686927536550        0.80930742613832       -0.00109454220975
C           -2.80368109181296       -1.20961310490490       -0.00166628215965
H            3.39126123989354       -1.94621103001262       -0.00008248957967
H            0.96215971564422       -3.59733201376075       -0.00169636229769
H            1.44364819980598        1.92556407858619        0.00136072502275
H           -5.05410215517251        0.25301159020763       -0.00164851225158
H           -4.29307413573617        1.81333041577227       -0.00062163223394
H           -3.59144308421464       -1.93786218407694       -0.00229909787016
