28
 energy: -49.071660542146 gnorm: 0.000589312356 xtb: 6.6.1 (8d0f1dd)
N            4.26438562626344        1.21099860931116        0.13497876362628
C            3.30306764188672        0.57764358176110        0.08742548707603
C            2.21131663643029       -0.28009484543435        0.03136297193602
C            2.35002664846531       -1.72371663617876       -0.00601108038775
N            3.54182802087507       -2.34034070297218        0.00620105406410
C            1.08705444099431       -2.30964597754518       -0.05536085209946
C            0.13730570182762       -1.28794266866921       -0.05292318892673
C            0.85436926974640        0.00367470038440        0.00467149298928
C            0.15092054923987        1.22039146542937       -0.00883868668367
C            0.82344137517401        2.45293865230995       -0.03378667850831
N            1.29459435785501        3.50184864384673       -0.07020438748686
C           -1.25799738824332        1.22681471767889       -0.05350937178838
N           -1.93657711326071        2.41546665775781       -0.09583169775898
C           -1.94181175402114       -0.00671416537574       -0.02208305215589
C           -1.24489859670164       -1.25451687518601       -0.07090058839439
C           -2.22716672886047       -2.29542857073630       -0.08026233692378
C           -3.46751205672558       -1.72751528868967       -0.00616933090264
C           -3.31953744016813       -0.30942739097535        0.06078936074521
N           -4.34827144326998        0.56249518293632        0.19757492145492
H            4.38510084793092       -1.79311228115195        0.04176143676198
H            3.60377132955116       -3.34236830434578       -0.01695981446180
H            0.88799475760032       -3.36335648789500       -0.08987621859135
H           -2.81256817990135        2.42707983024614       -0.59308630618021
H           -1.36285644336054        3.23769677122390       -0.22543403747746
H           -2.00735585372130       -3.34544947305487       -0.12861176589817
H           -4.41251549155788       -2.23829165023729        0.02062177704353
H           -5.25122398773886        0.16891848937175        0.41199236938496
H           -4.15572934800980        1.46412413749014        0.60402573514381
