22
 energy: -37.924267172648 gnorm: 0.000801660669 xtb: 6.6.1 (8d0f1dd)
N            4.75886857233862       -0.36331709840079        0.00590474987030
C            3.65505660252352       -0.04312458213362        0.00394437234812
C            2.29156237870445        0.26387396508574        0.00287828288461
C            1.68928428658797        1.48594287200378        0.00162400794335
C            0.25614644326435        1.27875439344658        0.00058212686235
C           -0.78438236533530        2.17554009062207       -0.00087435261273
N           -2.07649351408915        1.79455582301909       -0.00166970391173
C           -2.34510585871534        0.52032429967193       -0.00103374320979
C           -1.33137236266233       -0.57260179778063        0.00053733270399
C            0.01365117474479       -0.13256995644712        0.00134770832447
C            1.25059476260734       -0.77596040921186        0.00279345408895
N            1.51430266134274       -2.08639586885438        0.00389028048969
C           -2.01108879996610       -1.75035693554630        0.00075886025838
C           -3.42646333702501       -1.45219136599596       -0.00059440026533
C           -3.63113525260414       -0.10881775270287       -0.00166160629643
H            2.17684096740326        2.44294481707807        0.00133892378015
H           -0.62038850647684        3.24542966601624       -0.00145123667502
H            0.75828419919936       -2.74860946178468        0.00376274898988
H            2.46545756152286       -2.41561837085783        0.00490703528602
H           -1.61101292897035       -2.74896449745997        0.00174316470744
H           -4.19052765266788       -2.20981560998976       -0.00071303384210
H           -4.56671770762682        0.41384117612228       -0.00277351762457
