26
 energy: -45.628097130868 gnorm: 0.000783118259 xtb: 6.6.1 (8d0f1dd)
N            4.33341617055952        0.06979728366869       -0.00643512088679
C            3.20210101708193        0.28367964642839       -0.00472795846384
C            1.86188383639680        0.66021767482750       -0.00174228920524
C            1.43374591068414        2.00872590305822        0.00473372670494
N            2.25307571195821        3.07267733359867        0.00568178193770
C            0.01016509895000        2.05310027913163        0.00676581047367
C           -0.46048178600997        0.76037322367715        0.00260025526474
C            0.70698901928652       -0.14585336884397       -0.00141231284025
C            0.54322099399062       -1.52637970038547       -0.00162663705761
C            1.65014682107124       -2.39887074867477       -0.00803735186365
N            2.51831904673678       -3.14980193626408       -0.01389746622827
C           -0.75477599128966       -2.08645364562678        0.00412317256596
C           -1.85100470640462       -1.26136687842315        0.00701516254849
C           -1.73417252120060        0.16147098072946        0.00302815146785
C           -3.04389858134114        0.68327728172589       -0.00111267646159
N           -3.40571999620473        1.96921934217913       -0.01060000698139
C           -3.96982866778186       -0.42293664820668        0.00448923420727
C           -3.26331570194438       -1.57993171017239        0.00945420862080
H            1.89042020989550        4.00862732520964        0.02562767148135
H            3.24872806597423        2.92986992450138        0.01415676368330
H           -0.55442242664174        2.96808900484256        0.01282751600283
H           -0.86161244071004       -3.16160649985022        0.00503593001183
H           -2.70657325565910        2.69060749575650       -0.02530558800248
H           -4.37720884292930        2.22769376845330       -0.02327072592229
H           -5.03828133952917       -0.31060555421715        0.00404366867331
H           -3.66042748753939       -2.57812917392336        0.01435668806938
