22
 energy: -42.732694885944 gnorm: 0.000464838949 xtb: 6.6.1 (8d0f1dd)
N           -5.40076086146154        0.11951866130889        0.00065559481024
C           -4.27228520108127       -0.09316605977101        0.00147867143921
C           -2.88723376765727       -0.29449624460861        0.00137939087374
C           -2.20943583843297       -1.52850526657873        0.00393981955464
C           -0.81993668468774       -1.31027557731793        0.00315215891662
C            0.30328185225864       -2.16458219634851        0.00456180866848
N            1.53596427606644       -1.72623708698749        0.00347078172891
C            1.73924370208611       -0.40428691310791        0.00059976440644
C            0.64800380289337        0.59483857828425       -0.00150484980792
C           -0.61939530793774        0.10072208678082        0.00005228715741
C           -1.92959256067170        0.74531168077007       -0.00101305146885
N           -2.08265914509869        2.05339443248454       -0.00387365368793
N            1.13798681528528        1.86763040191752       -0.00430363281531
C            2.44542535795618        1.73133301639602       -0.00394998036230
C            2.89714796880277        0.36548218302962       -0.00088767712990
C            4.23193182985237       -0.03843096395936        0.00012415933497
N            5.34081625094162       -0.33867044527369        0.00064737102144
H           -2.69547601731354       -2.48807726676495        0.00615852871789
H            0.18257242624535       -3.23953645195426        0.00665957716800
H           -1.24794582887957        2.62706334020292       -0.00526492446128
H           -2.99690906158146        2.48025167147977       -0.00484463643317
H            3.08709442951548        2.59538361561809       -0.00588695373142
