28
 energy: -49.083001555849 gnorm: 0.000740829037 xtb: 6.6.1 (8d0f1dd)
N           -4.15271456980879        0.08854922650666        0.01672076575570
C           -3.05388911181706        0.45279037091940        0.01504973531099
C           -1.75111050146887        0.90952567576835        0.01223881017376
C           -0.55892034450147        0.17938501898675        0.00987334823619
C            0.53814452948281        1.16681999700584        0.01031244296969
C            1.86987706101768        0.75693886038207        0.00997961566474
C            2.90485234858122        1.70247921291210        0.00380510695070
N            3.78078183608842        2.44926791203724       -0.00611594615279
C            2.20139234855672       -0.62989743466268        0.00916541617277
N            3.50295957293105       -0.99864236908840        0.03298551029244
C            1.16049004714462       -1.55944149040573        0.00359170391713
C           -0.21521882660778       -1.16957520443604        0.00525189881221
C           -0.98628032072152       -2.37919603723617       -0.00055539938373
N           -2.31481547061273       -2.49631372147685        0.00015029369507
C           -0.07963524826519       -3.47169699261948       -0.00734314928650
C            1.20101175683841       -2.98463028335504       -0.00483327533926
C           -0.01934495039160        2.44615356115272        0.01102877835742
C           -1.40381650403807        2.31359566309426        0.01311845710332
N           -2.31801062910059        3.30019668540537        0.01159849811918
H            4.22055749459871       -0.29688977007291       -0.02546346801317
H            3.75702418129934       -1.96555121615930       -0.03817780514337
H           -2.92089394165260       -1.68812442213527        0.00535323602387
H           -2.73156638338067       -3.41158588241707       -0.00422779583973
H           -0.37285045197144       -4.50512919336105       -0.01357718159482
H            2.09278127775088       -3.58654733689646       -0.00831396599513
H            0.52534524149407        3.37090670342531        0.01107918719878
H           -2.02909399356292        4.26137337482481        0.02722894777363
H           -3.29852182318279        3.08069060300230        0.02861705132091
