20
 energy: -38.492496979751 gnorm: 0.000656290765 xtb: 6.6.1 (8d0f1dd)
N           -4.77610334067697        0.31962259349868       -0.07828772224471
C           -3.66158844171647        0.04211776925038       -0.06925958587674
C           -2.29075346817822       -0.23752383345431       -0.04060701938886
C           -1.67577112849865       -1.47951060754872       -0.07158889432684
C           -0.26264760686760       -1.30254166808750       -0.01567809615485
C            0.80771917524748       -2.19144249958877        0.08043766882115
N            2.06442929633440       -1.79315104334058        0.01441591109552
C            2.34065190034960       -0.51129009665216        0.02377217330308
C            1.28431874632585        0.55126494611947        0.10410882102393
C           -0.01146916256138        0.10090269165764       -0.00469300835165
C           -1.27338663968872        0.77872111085741       -0.01978996054199
N           -1.42067542597177        2.08806526096921        0.06425689061619
N            1.88890251182994        1.73408160264660        0.02301478525156
C            3.19074725103740        1.41456983206799       -0.06797608946620
N            3.50401883931717        0.12046061920316       -0.12492545217995
H           -2.18488821567814       -2.42395643422823       -0.13619152755143
H            0.65517649817507       -3.25492405899464        0.20564376856465
H           -2.32934011242144        2.51247476706850        0.16959048617490
H           -0.58742971221609        2.66104962238356        0.05837243245158
H            3.94797304475794        2.17588743887215       -0.11547251501979
