24
 energy: -42.190053698068 gnorm: 0.000482581881 xtb: 6.6.1 (8d0f1dd)
N           -3.28182227634189        2.29245349860821        0.00356848112145
C           -2.13771012964518        2.12426306521735       -0.00019895970044
C           -0.78343811651756        1.84078909065016        0.00052943720165
C           -0.20764711022537        0.57503271262159        0.00103716766865
C            1.24323549767819        0.77948817867582        0.00029280142705
C            2.11650736095706       -0.29051632896657        0.00020120772681
C            3.51160670948719       -0.07949330739000       -0.00110146541568
N            4.64737851408137        0.08219516845100       -0.00090223799912
C            1.61605468365878       -1.62062113589644        0.00089718541284
C            0.26548791237061       -1.82210362732237        0.00166505944340
C           -0.68153941655039       -0.75270602562837        0.00175337550752
C           -1.96655121717559       -1.34115406182546        0.00261270601818
N           -3.15520034987011       -0.75862515286644        0.00300896576353
C           -1.79536281018334       -2.79180925197378        0.00304519042863
C           -0.48281194409923       -3.07943234030619        0.00247755363090
C            1.48445958830661        2.18605078125311       -0.00035264201509
C            0.28208611900302        2.81929508496468       -0.00007516287734
H            2.31142770314569       -2.44710359536234        0.00075235941808
H           -3.25656644839345        0.25235944507002        0.00267470923163
H           -3.98898570357704       -1.32398625450456        0.00362986981287
H           -2.61900368830416       -3.48174327822076        0.00371331927817
H           -0.02547164045745       -4.05118247820647        0.00258088202372
H            2.45699062252326        2.64016452763540       -0.00109676765113
H            0.10995288672891        3.88047556022244       -0.00061130455630
