27
 energy: -49.355258312445 gnorm: 0.000605421482 xtb: 6.6.1 (8d0f1dd)
N           -3.47948063618830        2.71407950420148       -0.03617189222536
C           -2.87219352561340        1.73522805832637       -0.01577754466970
C           -2.19020112131081        0.52533011129953        0.00917617599929
C           -0.81907177866308        0.30467416055939       -0.00623867247400
C           -0.60725110499789       -1.15833610434998        0.03443983710801
C            0.68914680259732       -1.68836115889111        0.00636508163251
C            0.88234817360896       -3.07815922436645       -0.01494735032990
N            1.08243046160853       -4.21091520972597       -0.04381194340917
C            1.82574015968666       -0.83984603700248       -0.04576990762687
N            3.07305153653291       -1.38421645523132       -0.09686471358091
C            1.61700314992417        0.54561512934602       -0.01306662919412
C            0.30635894928459        1.11931387434661       -0.03223913075818
C            0.51286069219370        2.52127732681506       -0.05495600176961
N            1.79824110087987        2.83687330085779       -0.02147558481222
C            2.48844963997863        1.66922595946955        0.02951526669180
N            3.83440592508107        1.69380393413120        0.11079658858244
C           -1.85161030075401       -1.77198176501139        0.07112351164503
C           -2.83011610604777       -0.76784518552933        0.05697424960785
N           -4.15866274450396       -0.93592318746896        0.08207818910086
H            3.81515116851810       -0.83766800176276       -0.50065639839867
H            3.12743352487611       -2.38205067444578       -0.23867255378787
H           -0.24229103000576        3.28509170024706       -0.08761037116632
H            4.23307246844455        2.60940184895551        0.25378079612975
H            4.31834259734289        0.91563541517708        0.52710744056282
H           -2.03978578210069       -2.82815862614977        0.10463062087553
H           -4.76604141390264       -0.13404927505849        0.06983735117885
H           -4.55867685887026       -1.85694901513919        0.11320904588819
