26
 energy: -45.642330531221 gnorm: 0.000768140818 xtb: 6.6.1 (8d0f1dd)
N           -3.45578489237178       -2.35538279521302        0.00110648127628
C           -2.30197476500126       -2.25957034549468       -0.00026013767528
C           -0.93369365543980       -2.06671038006043        0.00035249194086
C           -0.26279854463867       -0.81542871151567        0.00071538076525
C            1.17481667692837       -1.12547939896929        0.00068917529300
C            2.12998355019695       -0.09354639826716        0.00087715368043
C            3.50402685155998       -0.40108732990079        0.00070547821229
N            4.62875294973330       -0.63329708570264        0.00018712432814
C            1.71938598857545        1.23734716408009        0.00102515596440
C            0.36110462689746        1.52350920530948        0.00102724550215
C           -0.63463733925383        0.51709838363349        0.00090056887586
C           -1.93085193427116        1.21018841604718        0.00097761497558
N           -3.12230456400558        0.63981208431358        0.00092968179633
C           -1.68947612766447        2.58681487539659        0.00119790892077
C           -0.31247819051549        2.80536072333340        0.00119528285168
N            0.30768123483099        3.98476098170878        0.00135405266846
C            1.31596362148956       -2.51086998017979        0.00049133121223
C            0.04724781091782       -3.07767691382545        0.00032727315846
H            2.46188482150402        2.02325449249437        0.00111015084107
H           -3.94857664692240        1.21592468981447        0.00104517357622
H           -3.23714515909033       -0.37053756333975        0.00075965704542
H           -2.44500615492610        3.34971447790564        0.00133771723731
H           -0.21766171386139        4.84178413578218        0.00147176798999
H            1.31190700902871        4.02885128229130        0.00132669380931
H            2.24698132996603       -3.04601535073785        0.00039096734788
H           -0.17170446226636       -4.13105389340395        0.00009164800594
