25
 energy: -45.917948822967 gnorm: 0.000890397826 xtb: 6.6.1 (8d0f1dd)
N            3.14108798505078       -2.27564678092726       -0.00677443743142
C            2.01605010482525       -2.00899785641148       -0.00364926197840
C            0.68283683121851       -1.64360100636534       -0.00431254179082
C            0.17700623923599       -0.32826721980534       -0.00285964457073
C           -1.29445383525391       -0.43375800018126       -0.00303443938852
C           -2.09867608997983        0.73172865129028       -0.00121068886470
C           -3.50067109858227        0.59406728484675        0.00051281136948
N           -4.64239508721827        0.47316020789045       -0.00391430402613
C           -1.51270001979410        1.98825044129988        0.00038487443062
C           -0.12040496371137        2.08654898100039        0.00047082985848
C            0.72656020139586        0.93744944517193       -0.00108257057947
C            2.07032927896987        1.48614373558997       -0.00024391839105
N            3.22161988374487        0.84144641138969       -0.00105081402292
N            2.03752125064931        2.84147960768795        0.00160476555268
C            0.75885217807958        3.19460269884389        0.00205425939434
C           -1.62915052533886       -1.77159192271212       -0.00481277755724
C           -0.43176799206078       -2.52869570178365       -0.00582758306876
N           -0.34973052063840       -3.86703167553672       -0.00753155834942
H           -2.12670631779177        2.87667068446218        0.00185034308563
H            4.06772930376111        1.38956820540443       -0.00024045554271
H            3.27454519569095       -0.17080407021538       -0.00239574223437
H            0.48833106537310        4.23584968380333        0.00351328539611
H           -2.62068622340247       -2.18273304867013       -0.00531840024809
H            0.54750956867461       -4.32079906703111       -0.00827295307027
H           -1.18387787249774       -4.42666372144130       -0.00857771597234
