26
 energy: -49.660529243590 gnorm: 0.000765227057 xtb: 6.6.1 (8d0f1dd)
N           -2.05206562467036       -3.50458647232375        0.02223889052868
C           -1.95863475196198       -2.35214152814579        0.01454668069857
C           -1.77412615432238       -0.98431939626908        0.00949099682632
C           -0.55270727256018       -0.29583463426557        0.00378870398406
C           -0.92573359883930        1.12541286628458        0.00583432517891
C            0.05658584063568        2.12259907064849        0.00464776410116
C           -0.30089301389552        3.48548477684704        0.00894637297067
N           -0.54516401957849        4.60673071366839        0.01059250660904
C            1.41375022131216        1.76824826205119        0.00102150946010
C            1.76059151290378        0.43242582420040       -0.00122629489674
C            0.79513869737601       -0.61073070556948       -0.00017872200764
C            1.56166874659438       -1.83177628956716       -0.00311756131488
N            1.09920594938924       -3.06926045029892       -0.00436186152732
N            2.89140011415169       -1.58265585820912       -0.00498511485285
C            3.03614396915210       -0.25626857182036       -0.00359119362677
N            4.23446542501582        0.31754293806746       -0.00338816830599
N           -2.25494116026384        1.27583757145147        0.01243913505775
C           -2.77522473893137        0.04145212163254        0.01451384615653
N           -4.10099835478547       -0.15694280072127        0.00021457194768
H            2.15992014577586        2.55037807926594        0.00017352418473
H            1.75935231353534       -3.82959684055508       -0.00687307796055
H            0.10495317322025       -3.26348728805189       -0.00124809150014
H            4.32517131315526        1.31790494621626       -0.00249986290135
H            5.05449480752650       -0.26473875094050       -0.00429895839690
H           -4.70247942138166        0.64523135136301        0.06272957104997
H           -4.48172765715343       -1.08239531745879        0.08613008213702
