23
 energy: -42.457900092463 gnorm: 0.000783554613 xtb: 6.6.1 (8d0f1dd)
N           -4.20188546378319       -0.84560933033588       -0.00217693346843
C           -3.31502989958093       -0.11316540331751        0.00123171072843
C           -2.21149202461997        0.73884693337997       -0.00084944980148
C           -0.84010117376187        0.29476201600667       -0.00200869777027
C           -0.00303001533437        1.49706044873909       -0.00224060910310
C            1.41770003365017        1.37066528278734       -0.00265676487582
C            2.21030726904312        2.53730422721276       -0.00132618673950
N            2.85679619128324        3.48529003680994       -0.00416038917714
C            2.01199795466618        0.12943821772562       -0.00321017004836
C            1.19536445410755       -1.02051812751920       -0.00310033005539
C           -0.23045787823713       -0.92399039787193       -0.00244332061627
C           -0.70317640766870       -2.30901820784191       -0.00239080096691
N            0.27455106791209       -3.14715740281962       -0.00298299807841
C            1.46199487806164       -2.39634347234062       -0.00340234136378
N            2.61742446643506       -3.04964561333181       -0.00398819514452
C           -0.84320086789768        2.58503924005624       -0.00166735024213
C           -2.19011647217913        2.11844204389171       -0.00105554854363
H            3.08878805544409        0.04197358094401       -0.00348124937477
H           -1.72999667337123       -2.62725141031120       -0.00198645608800
H            2.59792960481317       -4.05639538299314       -0.00412588849487
H            3.49643192424260       -2.56137136773464       -0.00427937184153
H           -0.55037453468690        3.61834252623577       -0.00158475494923
H           -3.05815502553775        2.75312580242831       -0.00031447768491
