26
 energy: -44.844529799071 gnorm: 0.000702038167 xtb: 6.6.1 (8d0f1dd)
N            1.33721533579735       -0.02886876159592       -0.46648508048215
C            0.18898643170084       -0.02576378044581       -0.32310096460511
C           -1.18002089180898       -0.02535237005142       -0.15762669227183
C           -1.96218258672938       -0.61289464689068        0.83257835891841
C           -3.34769621600427       -0.27364742322559        0.46696870864905
C           -4.40766071211891       -0.69089189841896        1.22112084734351
C           -4.19322971460832       -1.46695847555472        2.38889114430449
N           -5.27067662595889       -1.89976604382490        3.09571487369293
C           -2.88918668831424       -1.79658781452263        2.75284206150698
C           -1.76333607143323       -1.37615430019360        1.98188032418390
C           -0.59929012034683       -1.87763623720139        2.62702498012722
N            0.67168952012462       -1.71705599663265        2.24457558673477
C           -1.02081721604613       -2.59788118779712        3.78388935664153
C           -2.38414073574890       -2.55020788594624        3.86063585618064
N           -3.38347828349628        0.47162037339260       -0.67218348484654
C           -2.12991867150816        0.62527335642021       -1.04876530331132
N           -1.77369084389875        1.33705095727591       -2.13135088831771
H           -5.41409670024165       -0.43064805560863        0.93128278274586
H           -6.17572184192971       -1.51543414520346        2.89024620487668
H           -5.13216037086044       -2.32062138564627        3.99636762676613
H            1.41377157642872       -2.12277523625868        2.78778399390403
H            0.90647095948362       -1.19597255090988        1.41249488740012
H           -0.35414377390617       -3.08908998667186        4.46833955376229
H           -2.97995025689824       -3.00903228807109        4.63009599321410
H           -2.49588645525307        1.68653524228601       -2.73517862990123
H           -0.81842904642373        1.33793054129638       -2.44183209721674
