27
 energy: -44.555376001922 gnorm: 0.000785435227 xtb: 6.6.1 (8d0f1dd)
N            3.71297543723418       -1.75892905739318        0.02604573979944
C            3.09828924447047       -0.77715875479070        0.00605471213382
C            2.32510008377238        0.36662301255104       -0.01506264497947
C            0.92644959458590        0.44541553145531       -0.00234356273581
C            0.58846094899081        1.87325310937215       -0.03154754062485
C           -0.71566502955648        2.30315124745582        0.00470310548511
C           -1.77718430164353        1.38065666892341        0.05684097033763
N           -3.08932674123237        1.83573757444927        0.12006315615921
C           -1.47249401850402        0.02372116794774        0.00769685584250
C           -0.13817428984831       -0.45892199916183        0.01531463944615
C           -0.21421714943031       -1.89709653821358        0.03137700512512
N            0.80441124592051       -2.74995705452937        0.06035378264863
C           -1.57662878100267       -2.27351055960839       -0.00499330383101
C           -2.35068261455293       -1.13360786446202       -0.04926455889966
N           -3.70232017174614       -1.06726409050927       -0.13327313435672
C            1.80683478599846        2.59988853981113       -0.06345976665033
C            2.83832838520176        1.70443163984526       -0.05296388667969
H           -0.93943760053771        3.36185274096310        0.01302693939370
H           -3.69103207592254        1.30613803192393        0.73345980971493
H           -3.16148942047397        2.83154769157850        0.27899939464539
H            1.76606025759864       -2.42896437089351        0.05774311113391
H            0.62524742500813       -3.73976542044860        0.07434114791820
H           -1.93533403347159       -3.28568125952969       -0.02862084184893
H           -4.18550599218388       -1.92782195859772       -0.33907456265271
H           -4.09236512736708       -0.23360953130322       -0.54445276726520
H            1.88879286727903        3.67054250760424       -0.08916169186783
H            3.88921007651325        1.93658428836023       -0.06911014689157
