24
 energy: -41.391940568823 gnorm: 0.000872129716 xtb: 6.6.1 (8d0f1dd)
N            3.72154984728633        1.02012610759901        0.00160012906873
C            2.94121385240650        0.16678912772346        0.00093228276920
C            1.94625619480343       -0.79446409604445       -0.00030961285112
C            0.57845847010782       -0.54815102302691       -0.00126521151237
C           -0.09222609555581       -1.85531695453040       -0.00164355127893
C           -1.45442429473005       -1.96698221155085       -0.00353918897218
C           -2.28120936706248       -0.81207692439554       -0.00422959463015
N           -3.62600736588760       -0.95256739757525       -0.02413315056390
C           -1.65928861623627        0.43723321298023       -0.00220343781929
C           -0.24213544809341        0.58721609770204       -0.00147102172805
C           -0.02621759045155        1.99112621730882        0.00081998689165
N            1.11013003739580        2.67673522823676        0.00133778417117
N           -1.22525235427989        2.67476669900601        0.00269881938366
C           -2.17212953595310        1.77472298651137        0.00079192276649
C            0.93194430549389       -2.85301138040430       -0.00035273473073
C            2.13795415455199       -2.22591709141358        0.00004675035051
H           -1.92505016030840       -2.94079707395777       -0.00455303413265
H           -4.03961933320785       -1.86563991341573        0.03801607158210
H           -4.22249424441159       -0.14755627472873        0.02974346673672
H            1.05173153864599        3.68159418781015        0.00332143326096
H            2.01331603256878        2.21821289496993        0.00109167032249
H           -3.20432285748557        2.08014465243865        0.00183158531918
H            0.75735411930118       -3.91227659017419       -0.00011719196614
H            3.10699365630169       -2.69285476786857        0.00037918046245
