27
 energy: -44.550650906762 gnorm: 0.000466570937 xtb: 6.6.1 (8d0f1dd)
N            4.33079313388113       -1.52538295648825        0.04083977198001
C            3.37600612674300       -0.87813990796451        0.03417714943267
C            2.24610542109097       -0.07423923081099        0.01915817284494
C            2.23492778161573        1.32511758962063       -0.00884162407267
N            3.32684486470323        2.12445341538888        0.02832115045684
C            0.88318167382338        1.79056741477127       -0.03110133092856
C            0.04566610502911        0.70145859429936       -0.01665665132167
C            0.88511033904953       -0.50841993730242        0.00723149373930
C            0.34829741800069       -1.76184320352564        0.00127707974245
C           -1.06209773670481       -1.94552765801558       -0.02239356725178
N           -1.55597435414258       -3.21008972910725       -0.06649618180879
C           -1.88250244128956       -0.82290538590280       -0.03352298191170
C           -1.34826004813712        0.50080331480916       -0.02450487580038
C           -2.44162263492144        1.38902706777556       -0.01208251014859
N           -2.39265699729658        2.73906189512393       -0.01731581609541
C           -3.64454196651815        0.61786069337891       -0.02614515597082
C           -3.31343224387946       -0.70509535087724       -0.03806183557158
H            3.23227389112518        3.10225687184830       -0.18252502265338
H            4.23276057711112        1.70317259067755       -0.08935097611211
H            0.62023371144517        2.83296926563366       -0.06546725412033
H            0.98947702997635       -2.63257871773848        0.01370419808320
H           -0.93666749264225       -3.98450833696107        0.09438876194644
H           -2.54135248241708       -3.36019345081200        0.05064134502488
H           -1.51361653555887        3.19071056105259        0.16191831210738
H           -3.23498241669652        3.25899753488513        0.15875707843001
H           -4.63441836256460        1.03635397007155       -0.02411941910063
H           -4.01033143772562       -1.52450528473046       -0.04920574471960
