26
 energy: -44.834817672264 gnorm: 0.000828958674 xtb: 6.6.1 (8d0f1dd)
N           -3.19716262580866        2.67093225401209       -0.05674510263357
C           -2.64426272729728        1.65901518410766       -0.03527227879077
C           -2.03612332783376        0.41527093081439       -0.00989088852147
C           -0.69227664102229        0.06732713663243       -0.01555022820966
C           -0.68036800266400       -1.40851532509435        0.02390893302461
C            0.49794174874724       -2.10848301451974        0.00495784562149
C            1.73229916676773       -1.42241226126392       -0.04446087113678
N            2.89193390947839       -2.14768995817074       -0.11305139802594
C            1.73940521251115       -0.02500128706832       -0.00000484622927
C            0.53000589712898        0.73111460381710       -0.02926631006118
C            0.87640803066189        2.10312439257515       -0.06173895018730
C            2.25456782513568        2.21448167747254       -0.02403267989130
C            2.81108242003609        0.92646468933812        0.04368439276775
N            4.14008613531777        0.63895832269408        0.14079174778005
N           -1.94050093338762       -1.90506730593936        0.04834793835451
C           -2.74679414742253       -0.85226516505798        0.02990261706119
N           -4.08059086863165       -0.96325643225126        0.04264039978321
H            0.48677809268196       -3.18789980018561       -0.00050908303868
H            2.78311548735836       -3.13220478750827       -0.30281630952665
H            3.67841760403662       -1.71229639983033       -0.56808477418964
H            0.17270742678671        2.91432058172226       -0.10094120532315
H            2.81946365244805        3.12856985898137       -0.01869744948254
H            4.74386431800700        1.42585833084786        0.32753636559585
H            4.39223337943316       -0.20985124567789        0.62279496509027
H           -4.49638901970964       -1.87661235649438        0.07808544830187
H           -4.65704197435977       -0.14049897485306        0.04160169416722
