25
 energy: -41.118094829806 gnorm: 0.000989679126 xtb: 6.6.1 (8d0f1dd)
N           -2.92224964226840        2.46600777638537       -0.00305181536271
C           -2.61128809427862        1.34972293783421       -0.00147106487499
C           -2.16914673343947        0.04224329257150       -0.00107559010585
C           -0.83169092440072       -0.38833524477583        0.00008123112760
C           -0.86484944194487       -1.85660840795611        0.00049005288890
C            0.30047411390673       -2.60245761707966        0.00172072016914
C            1.53687006072073       -1.96649055067904        0.00259076245017
C            1.58363149144190       -0.58173782553298        0.00218490864892
C            0.42301452643651        0.22182775707623        0.00093490456052
C            0.86823972647326        1.60302295695058        0.00085542715569
N            0.10146303874159        2.68051862149943       -0.00019672139097
C            2.27996291200657        1.61840179310880        0.00207715698905
C            2.73653610797736        0.31407741962983        0.00290807136994
N            4.00674741440995       -0.10292323391451        0.00417003679532
C           -2.22007500152010       -2.24911817016598       -0.00053810127207
C           -2.99790723884273       -1.11861322269297       -0.00150274622155
H            0.24787257082517       -3.68182593232780        0.00202883339381
H            2.44382385273740       -2.55593023866180        0.00356467928398
H           -0.91292212978848        2.61530704874302       -0.00099712535305
H            0.52466341100887        3.59436645784333       -0.00011281510571
H            2.88670284197162        2.50411052973739        0.00230887889750
H            4.76389750553630        0.55755705471664        0.00464108951673
H            4.21548970837219       -1.08538094430219        0.00469393605863
H           -2.57343786873423       -3.26354503829677       -0.00051142830564
H           -4.07377769044851       -1.08332039371068       -0.00237828481336
