23
 energy: -37.669577841550 gnorm: 0.000462776639 xtb: 6.6.1 (8d0f1dd)
N            2.43529839493585        2.62604228337071       -0.00318995123304
C            2.19929245417292        1.49332740913030       -0.00021082368494
C            1.84879104287170        0.15577810544321       -0.00144183002154
C            0.55888725755139       -0.36299213349658       -0.00112830924337
C            0.68950816294366       -1.81817581706424       -0.00144836357655
C           -0.40487318970207       -2.63888909011877       -0.00100443764637
C           -1.70296006656976       -2.08552543889002       -0.00024000253532
C           -1.85478645025867       -0.72556439756147        0.00006342102302
C           -0.74673053744162        0.17486373365103       -0.00032219232211
C           -1.27519394273281        1.48020138710211        0.00027153803240
N           -0.63900697127345        2.64566550590378        0.00027145097438
C           -2.73259628703748        1.37487691557949        0.00097557784896
C           -3.07785031907033        0.07600802629568        0.00086113255202
C            2.09352217552361       -2.12140847563373       -0.00226813687548
C            2.78052285380305       -0.95456225463119       -0.00238592583840
H           -0.28342533641556       -3.71270363925380       -0.00122044011012
H           -2.56412937544560       -2.73782411000181        0.00010252777053
H           -1.16593762671399        3.50344650385634        0.00072852831112
H            0.37408782478299        2.69885644917210       -0.00028560613597
H           -3.38494645087573        2.22892628647997        0.00148309663918
H           -4.06953802250198       -0.33679624108945        0.00126279999939
H            2.50478281164697       -3.11312939410439       -0.00255038581704
H            3.84846812670690       -0.82805369973924       -0.00274360761079
