22
 energy: -37.936687796219 gnorm: 0.000659165911 xtb: 6.6.1 (8d0f1dd)
N           -2.92051398497179       -2.71704661701262        0.00018492851213
C           -2.59012132256773       -1.61469215369122        0.00319200933903
C           -2.15085053186881       -0.29408489030326        0.00143454320578
C           -0.79055458931493        0.14389470015217        0.00073071728134
C           -0.88650189642478        1.61737845372342        0.00037668867227
C            0.27540116403060        2.41155860884845        0.00002228812282
C            1.50329796191106        1.81083942174998       -0.00007891985486
C            1.60300256306446        0.39740398894212        0.00019544600374
C            0.44571931768811       -0.43167075017454        0.00063026520878
C            0.88967701568202       -1.82785499956980        0.00082840027585
C            2.23481952097139       -1.83937377130919        0.00052096177180
C            2.71549300035152       -0.45885129051011        0.00013894787637
N            4.00277591852270       -0.12633272783338       -0.00020197890677
N           -2.15093137167069        2.00349329593857        0.00049586364689
C           -2.90242029970337        0.87293223386820        0.00101517359829
H            0.17219793735883        3.48475788121903       -0.00013844108166
H            2.40247607477198        2.41144408124447       -0.00038220103261
H            0.22088690681658       -2.66818291770498        0.00112918051295
H            2.88617465713666       -2.69343369227263        0.00053929582680
H            4.28028335502738        0.84116272828048       -0.00043361822016
H            4.71721602780163       -0.83502324316237       -0.00020552812723
H           -3.97569165941279        0.94739208987720        0.00146270596849
