21
 energy: -38.213636593378 gnorm: 0.000887512886 xtb: 6.6.1 (8d0f1dd)
N           -2.23540211934346       -2.94072617058616        0.00170809759593
C           -1.84098931417718       -1.85903852008372       -0.00312946012579
C           -1.43315838992203       -0.53241631297740       -0.00263410427364
C           -0.18059103081742        0.02790026075427       -0.00247597554446
C           -0.40166103696015        1.48935072475733       -0.00378817973725
C            0.64646578665530        2.37366219115075       -0.00437833991502
C            1.97048477696655        1.88980919194550       -0.00371297017848
C            2.21117026540931        0.53793127096655       -0.00245472585960
C            1.15280101847122       -0.43174380647044       -0.00181666288187
C            1.77868527810306       -1.66813983227280       -0.00062855688404
N            3.14403769715738       -1.54135820467835       -0.00041412913808
C            3.41431763487488       -0.26411355399016       -0.00147333003828
N           -1.73374488681556        1.77563571508531       -0.00419224750851
C           -2.36077944749810        0.62327476919121       -0.00348445199161
N           -3.68706380004874        0.49752790044259       -0.00378992312736
H            0.45287043800230        3.43426749994493       -0.00534939976225
H            2.79069139980909        2.59387458628696       -0.00419790982570
H            1.33053922005635       -2.64529750210332        0.00014722932949
H            4.42781091567158        0.09395055296843       -0.00155644081005
H           -4.11621187316317       -0.41199809340986       -0.00324945330798
H           -4.25541612253118        1.32714195837829       -0.00456222671543
