23
 energy: -41.667946817605 gnorm: 0.000682233582 xtb: 6.6.1 (8d0f1dd)
N            1.27252893561194        0.11149449250390        0.29348130201914
C            0.12093118655893        0.01925017376963        0.27731771372855
C           -1.25448917002646       -0.04841435960236        0.14089175391010
C           -1.98630695563014        0.30611184117306       -0.99286941750296
C           -3.40353196148470        0.04280219108031       -0.61252903307591
N           -4.42366383613252        0.24220643789686       -1.39332736466280
C           -4.20140038030828        0.72228688742426       -2.64002924796272
N           -5.31678479187212        0.88525892732144       -3.37811445174696
C           -2.91613915808077        1.01070613551251       -3.10750128295112
C           -1.78324271996166        0.79892641784790       -2.27151262678161
C           -0.61940555360545        1.18069566398296       -3.02551008443920
N            0.64210145174313        1.13611846677820       -2.61542443994700
C           -1.06850871250318        1.61837831366073       -4.30431440058994
C           -2.43198680391530        1.51887074420074       -4.35618328655282
N           -3.46745313780990       -0.43033502689438        0.65708348617052
C           -2.23078255616174       -0.48368663467607        1.09234784859231
H           -5.28371549496332        1.26922658966613       -4.30365685025439
H           -6.19741807517560        0.67109723141255       -2.94443692782869
H            0.88700894100853        0.81150844928288       -1.68656303985224
H            1.38216161221326        1.42844085168699       -3.23249984721523
H           -0.42200796982025        1.96723411732063       -5.08766420562741
H           -3.04353019759697        1.78096045701762       -5.20107891615446
H           -2.01440465208738       -0.83166836836666        2.08775331872498
