24
 energy: -45.404202444733 gnorm: 0.001000726490 xtb: 6.6.1 (8d0f1dd)
N            1.26756264964860        0.15585881636448        0.08138513993824
C            0.11586824209874        0.18934612005269        0.17109387894910
C           -1.26636687416657        0.14922453323773        0.12816885895926
C           -2.00428005425873       -0.44056475706695       -0.91521336411541
C           -3.42247542283342       -0.23986565360767       -0.52117335320919
N           -4.44680504221371       -0.67310572656373       -1.22605653570455
C           -4.22107617278269       -1.31281453283443       -2.37229661044261
N           -5.34053226462892       -1.74489868070482       -3.04231487713391
C           -2.92348723086821       -1.48448889015520       -2.88054770470110
C           -1.79788118868820       -1.06412745792210       -2.12114978608988
C           -0.64198354661234       -1.43185471968051       -2.92794391569492
N            0.62605229210154       -1.25482682344500       -2.61033867823066
N           -1.02083923216568       -1.99279451739835       -4.08578097747633
C           -2.36533996852954       -2.01174998305400       -4.09153898737855
N           -3.03650897907225       -2.47975041821973       -5.14583553035249
N           -3.49193507088542        0.41178685390785        0.64696750172482
C           -2.23860529121683        0.63543297927428        1.02849825760802
H           -6.18040360558067       -1.62706702016635       -2.49270581121205
H           -5.27664074193484       -2.63010477922895       -3.52137085515960
H            1.33343113221935       -1.56452277112932       -3.25725329496557
H            0.90017657867706       -0.80844495645587       -1.74023958107597
H           -4.01492860410139       -2.27009650231864       -5.24759228055551
H           -2.50050362207241       -2.71964718950236       -5.96417484072973
H           -2.03904798213337        1.14745607661694        1.95381334704831
