27
 energy: -48.569445852366 gnorm: 0.000919786053 xtb: 6.6.1 (8d0f1dd)
N            1.33666647581032       -0.11067233995170       -0.44006997994150
C            0.18720734608621       -0.05810333606897       -0.31599710761440
C           -1.17922409860407       -0.02540397636738       -0.13324671793982
C           -1.93682201705121       -0.65829436512770        0.86284854113848
C           -3.34133307828646       -0.27752628631351        0.55930066247843
N           -4.38033606942532       -0.69600336068397        1.24645376949778
C           -4.17019246118819       -1.49175992219288        2.30098861895427
N           -5.31191595362332       -1.90301223800434        2.95893015550669
C           -2.88981169477666       -1.84444962617603        2.73058030493753
C           -1.74610940955414       -1.44816866912985        1.97395564345080
C           -0.58353042277080       -2.00661508763411        2.62823205966432
N            0.67627687398817       -1.86971562543678        2.20880106567801
C           -1.01993069595831       -2.69458754602796        3.76465351038978
C           -2.40797831231703       -2.58784322929953        3.85839936300462
N           -3.18804180544745       -3.10297641166452        4.83824250068111
N           -3.40101225456381        0.51353454633854       -0.51737901404924
C           -2.14087639101353        0.66971718590922       -0.93806736311116
N           -1.85162359553426        1.42987874582247       -2.00515555060997
H           -6.14542444792117       -1.63607082408564        2.45256411112878
H           -5.31798008249404       -2.86061346444048        3.27812719621944
H            1.42897169528557       -2.29640950609661        2.72041511709239
H            0.89526980203068       -1.33116734601251        1.38251735511105
H           -0.38537896967584       -3.20153830827800        4.46777572302081
H           -2.72463408556013       -3.45079728526863        5.66253967770982
H           -4.09128427063811       -2.67951388568705        4.97834893334564
H           -2.61064506805078        1.82767292134987       -2.52843900542057
H           -0.91209700875963        1.48185924026832       -2.35588957068615
