23
 energy: -41.667323714266 gnorm: 0.000796831383 xtb: 6.6.1 (8d0f1dd)
N            3.71452085707827        0.95400574059053        0.00208537138898
C            2.94689739458152        0.08934387215265        0.00117678509467
C            1.92677462359435       -0.84579532673568       -0.00010710911081
C            0.57245713608635       -0.52034520411980       -0.00069725023218
C           -0.18050291978703       -1.80765579179573       -0.00191641803671
N           -1.48913055540706       -1.90260056109836       -0.00295176144322
C           -2.22462252359369       -0.77599070048170       -0.00245894639359
N           -3.55776695183104       -0.95960398247452        0.00115216898656
C           -1.62612289745904        0.49700270860844       -0.00273151697544
C           -0.20697030386728        0.62589785518673       -0.00167231835505
C            0.02842144083704        2.04608846188406       -0.00152791607654
N            1.18233116127874        2.69043644735566       -0.00007675318722
N           -1.15345376063101        2.72972863462310       -0.00293377632569
C           -2.11660671829974        1.82989749612898       -0.00370204335815
C            0.77639833349027       -2.84495914233058       -0.00220104950961
C            2.02548818354317       -2.27520650908318       -0.00082490941750
H           -3.90238206347656       -1.90382493572037       -0.00470536262357
H           -4.19532737874763       -0.18481551967732       -0.00721786767835
H            1.16184388440131        3.69786475569171        0.00058543613412
H            2.07157072353537        2.20011434320512        0.00086210028081
H           -3.14431441006646        2.14999119064890       -0.00513650077989
H            0.55016784503476       -3.89287243295841       -0.00277816065709
H            2.96252544150577       -2.80454012740056       -0.00045713342473
