28
 energy: -48.281304289642 gnorm: 0.000961362359 xtb: 6.6.1 (8d0f1dd)
N            3.10970472988753        2.47712802429361       -0.10143817928880
C            2.64101378266570        1.41804950080233       -0.06410091346346
C            2.06206868812338        0.16704812457152       -0.02739215297881
C            0.68491073840854       -0.14246643605621       -0.03405467446234
C            0.58180656596220       -1.62195444174044       -0.00430281850545
N           -0.56941994832134       -2.28867807928190       -0.03876034457500
C           -1.69982293160647       -1.59602584264192       -0.06524663031796
N           -2.86886842670836       -2.34318502781815       -0.10447419676425
C           -1.72525116191194       -0.19447355095354       -0.01236445572774
C           -0.50524400315518        0.54726387889079       -0.03383624337014
C           -0.86919881974365        1.95746919602115       -0.01497280734555
N           -0.01183435598307        2.98013227801144       -0.04654620218076
C           -2.25697672088743        2.04091985253259        0.04994568793608
C           -2.79270625908669        0.74586134104819        0.07634499132148
N           -4.10577441489356        0.42888513090979        0.16324642778950
C            1.86789436951028       -2.13971569177041        0.02594914676747
C            2.77347890513298       -1.06805394418090        0.00991324001820
N            4.12086605789383       -1.16406279798029        0.06354083400240
H           -3.56555119432834       -2.00844166148959       -0.75562089087988
H           -2.66340087487668       -3.32704070952906       -0.22244428219486
H           -0.35750327882152        3.92385019784262       -0.02832999156149
H            0.98681260258878        2.82741150600916       -0.07084556586966
H           -2.82741235956020        2.95018954060420        0.09741051459334
H           -4.33249898896683       -0.49511625792089        0.49508011987243
H           -4.74760334183279        1.16670483484354        0.40504854216090
H            2.13261865793550       -3.17883112571648        0.05364830894206
H            4.55727272865646       -2.06201019570714       -0.04404403650872
H            4.67884662021852       -0.33929079349389       -0.07491452380937
