23
 energy: -41.667438901326 gnorm: 0.000577525016 xtb: 6.6.1 (8d0f1dd)
N            1.68371968895693       -3.01598784539680       -0.00509296294854
C            1.65462629605617       -1.85998459696136       -0.00476469566575
C            1.53405934553833       -0.48296450818485       -0.00420706186952
C            0.31541335637462        0.22473077925998       -0.00212754478683
C            0.64873017192108        1.67480100737005       -0.00235828447748
N           -0.26611168549403        2.65472935589422       -0.00071587802633
C           -1.53270540635981        2.32018678519009        0.00123135401525
C           -1.97121906244298        0.98661167492195        0.00168190942098
C           -1.02230893906067       -0.08292611767031       -0.00004533039009
C           -1.83729865510853       -1.28706350490555        0.00103416501402
N           -1.42556715305355       -2.54282298605965        0.00014021509960
N           -3.15011532993699       -0.97262843333774        0.00319739419666
C           -3.23145826010939        0.35761477137276        0.00357770864751
C            2.02249410945029        1.78571113594836       -0.00451367395146
C            2.57788786252892        0.47961560111908       -0.00567257042079
N            3.88808453464908        0.19102699459556       -0.00783970077930
H           -2.24209072580600        3.13818111743911        0.00251310937932
H           -2.12097012254555       -3.27209872996002        0.00110909241589
H           -0.44104304745347       -2.78234555982704       -0.00151101366313
H           -4.19619227242008        0.83359844885942        0.00521626838691
H            2.58853199990871        2.69635326760266       -0.00523072620289
H            4.57014503180914        0.92823996351472       -0.00868311273121
H            4.19740895299783       -0.76560902118461       -0.00843562726285
