27
 energy: -44.554462700304 gnorm: 0.000886271312 xtb: 6.6.1 (8d0f1dd)
N           -4.45655681066754       -1.73284460152759        0.03652436093065
C           -3.49996698617482       -1.08776578045828        0.01635126022830
C           -2.38038981012071       -0.27052156955764        0.00356350937529
C           -2.42231568682518        1.15686370777156        0.02207087042222
N           -3.57004235368764        1.87895353382549       -0.00844874990808
C           -1.11712714375530        1.66231796434369        0.02275020808258
C           -0.23221668894145        0.58526933630445        0.00448781522661
C           -1.02907763131678       -0.65159442239555       -0.00552086912695
C           -0.43065168349260       -1.90555572991315       -0.01544708320805
C            0.94936696079915       -2.01428601194981       -0.01299582594910
C            1.72713752026045       -0.86001945118575       -0.00395297766528
C            1.15117589579930        0.43353183402595        0.00039441509042
C            2.23935812373149        1.38149237055560       -0.00073930941780
N            2.09180337929598        2.71222626630758        0.00031370974032
C            3.44703925577489        0.67854337116394        0.00179645778656
C            3.15929643171899       -0.68771948086328        0.00040744595036
N            4.05003923204762       -1.69048318991267       -0.00354108205588
H           -3.54204392336482        2.86288409962166        0.19094695832699
H           -4.43859454069155        1.39392571574939        0.14074948487162
H           -0.88046150520421        2.71205767341205        0.03942006631678
H           -1.05088065494510       -2.79019031666589       -0.02410391778386
H            1.41104602036706       -2.99262958085737       -0.02021378767261
H            1.16909567347187        3.10492737436180       -0.04303864532635
H            2.89137282991589        3.31910100512408       -0.03713042704742
H            4.42857646027554        1.11488609513527        0.00355763635515
H            3.73471265771292       -2.64347646083222        0.01481135571097
H            5.03633053711650       -1.50354330238338        0.02210450704660
