21
 energy: -38.208322659391 gnorm: 0.000636989956 xtb: 6.6.1 (8d0f1dd)
N            2.99622643849254        2.68880757455373        0.00053144001193
C            2.64167609566709        1.59455451674587       -0.00237178929208
C            2.16130994689871        0.28700636010101       -0.00051538472230
C            0.78806238969122       -0.09950124621574        0.00079857797321
C            0.83495569860485       -1.59159156467701        0.00094342663190
N           -0.25942477493711       -2.36471001565686        0.00173903063301
C           -1.42160365936731       -1.77460900719547        0.00244042985583
C           -1.58650746434591       -0.37136965745195        0.00239562414889
C           -0.44129419648438        0.48344547575714        0.00152872599014
C           -0.91381342057995        1.86667206452647        0.00169304895951
C           -2.26159485072362        1.84793669093521        0.00263154403385
C           -2.71875039215269        0.46351446598215        0.00307303493739
N           -3.99586745316996        0.10249288188719        0.00396997955221
N            2.08023774792922       -2.01357584003111        0.00016999249792
C            2.86869224527575       -0.90627819264165       -0.00054805033077
H           -2.28112105441419       -2.43534174528147        0.00307232571500
H           -0.26491593090006        2.72239974008956        0.00118872229406
H           -2.92735817855221        2.69087022485439        0.00301954347598
H           -4.25267841454231       -0.87108058137958        0.00423246060893
H           -4.72635247752007        0.79539672797280        0.00440827729777
H            3.93837158543032       -1.01991859407491       -0.00154662917227
