28
 energy: -48.276684458008 gnorm: 0.000717110886 xtb: 6.6.1 (8d0f1dd)
N           -1.76418759044882        3.86491952133031        0.04775391269645
C           -1.27512646606025        2.82262202211816        0.01492282282223
C           -0.63141801743941        1.57786995070476       -0.00553174210116
C            0.77516715850847        1.53701757323108        0.03508359409337
N            1.51225744596089        2.70391656823030        0.04611799830779
C            1.39554129999674        0.27972993128068        0.01596173912963
C            0.65171121856890       -0.93794229248076        0.04292992941418
C           -0.73548062064255       -0.93667637700528        0.02952619413773
C           -1.39526716283594        0.39271980240758       -0.01905787646283
C           -2.75479467232587        0.18162009440674       -0.03571503314684
C           -2.97166302916351       -1.21801771025104        0.00513781728550
N           -4.19139594500375       -1.80976250889524       -0.03345238103342
C           -1.73703322525004       -1.89363324494498        0.04281141663421
C            1.64936521141592       -1.96836312300889        0.04690310238482
N            1.42768676712488       -3.28636959419194        0.09545362625605
N            2.89325667139664       -1.46771811711710       -0.00249698079700
C            2.75778422466003       -0.12776645168631       -0.03991236972624
N            3.84949479041841        0.66593273361983       -0.11560270731794
H            0.96388732089595        3.54227331210053        0.18357873481652
H            2.36427533347652        2.68100716715555        0.58571568241695
H           -3.52360790478873        0.93038653066975       -0.06865408956467
H           -4.26700732863914       -2.78939289013598        0.17815517738643
H           -5.00657915296144       -1.24028941145822        0.11241483783087
H           -1.62699135203990       -2.96252264209330        0.08102047021452
H            0.48900095006854       -3.63334816644544        0.02099761978596
H            2.20958377587362       -3.91367717405879        0.02813133092029
H            3.74018710069355        1.57379906718164       -0.53734900001860
H            4.71618879774031        0.18296000973627       -0.29476984716493
