26
 energy: -44.826881271180 gnorm: 0.000670076160 xtb: 6.6.1 (8d0f1dd)
N           -2.82331383071671        3.09959236118797       -0.02051084997570
C           -1.99214418600177        2.30279959362077       -0.01191205330467
C           -0.94556650356417        1.37046975473620       -0.00152663266808
C            0.38940725714783        1.84366883305690        0.00068301207139
N            0.63831134896508        3.17111663783507       -0.00283436411515
C            1.42859815242638        0.89526318620827        0.00821946615517
C            1.17657215235425       -0.51065205796878        0.01808999102207
C           -0.12465467565286       -1.01060922842258        0.02120060290047
C           -1.22511940495554       -0.00476436467796        0.00693095592238
C           -2.42064558213325       -0.69392080308622        0.00941937501277
C           -2.11719823594017       -2.07148801765927        0.02835497601212
N           -3.02512481139134       -3.06650053835398        0.02019634687300
C           -0.70840627457743       -2.25643221044190        0.03474569005102
C            2.47235907469922       -1.10140652997093        0.01659035895140
N            2.77811389789404       -2.40581578452179        0.03659018809413
N            3.44953395413956       -0.16109974703421        0.00878394592384
C            2.83446926593395        1.01576812769111        0.00409924216413
H            1.58119135058228        3.51220645608794       -0.01321103554097
H           -0.12667623022322        3.82338548681071       -0.01983060412097
H           -3.40655966455273       -0.26997250389728        0.00088275147173
H           -4.00424818509393       -2.85334572950802        0.08713436895069
H           -2.73342587915076       -4.02290526011156        0.11266543590358
H           -0.22335371210917       -3.21517646759932        0.05289317852122
H            2.05426741370221       -3.09497394729245       -0.04544354818792
H            3.74487690575686       -2.67131723010827       -0.02996300681390
H            3.42164312486155        1.91807663601977       -0.00470083677380
