27
 energy: -44.541709408882 gnorm: 0.000454186622 xtb: 6.6.1 (8d0f1dd)
N           -1.05421503373683       -3.86293268792587       -0.03966857682421
C           -0.73215064062690       -2.75714978955931       -0.01097840401836
C           -0.29248790493413       -1.42768858695950        0.00699842780316
C            1.07473210468932       -1.15447217816435       -0.04439476711673
N            1.99801724408509       -2.17789629655683       -0.06989748069339
C            1.50340014305681        0.19878029981946       -0.03201893894868
C            0.56944662808003        1.28406847090800       -0.08505951241446
C           -0.78671274897318        1.04489276797236       -0.05204400386579
C           -1.24000125992952       -0.36782559559244        0.02084777091751
C           -2.60256811007647       -0.36332715541517        0.05418978601563
C           -3.03480867606065        1.01156795708609        0.00638437591899
N           -4.33123070786384        1.38514143322597        0.04901601636913
C           -1.92787905233577        1.85162212714241       -0.05399100819544
C            1.32896196034499        2.50337635455270       -0.10185847503212
C            2.65152829062987        2.19032400924114       -0.02756534236574
C            2.78436672258538        0.76288403448992        0.04461479008012
N            3.97358922703541        0.11522117844607        0.17232731238285
H            1.59911897832436       -3.09892795075567       -0.19411846584854
H            2.82433016673867       -2.01276812069506       -0.62365698057372
H           -3.25874868800778       -1.21183503507290        0.10550778877452
H           -4.57965200601191        2.34792966343901       -0.09471859998373
H           -5.05145179468784        0.68957391020371       -0.03196684841524
H           -1.95050975375939        2.92343411207195       -0.09717601576051
H            0.90372733176334        3.48807129074498       -0.15447273880323
H            3.48159858740107        2.87309400444724       -0.00654814419283
H            4.77097923402588        0.68604098401674        0.40606570699559
H            3.95879703544388       -0.80098577421069        0.59227279479527
