23
 energy: -37.656510724944 gnorm: 0.000554842252 xtb: 6.6.1 (8d0f1dd)
N            4.01612904241357       -1.64069373483928        0.00042887852955
C            3.06838614263019       -0.98592801631009       -0.00079939400237
C            1.95346167710195       -0.15575025259225       -0.00018714901370
C            1.97501717436793        1.23058493572542       -0.00010309956333
N            3.06183184394856        2.02514077593728       -0.00058327962358
C            0.60916006205649        1.72674637561020        0.00016789655430
C           -0.23758379875926        0.66114739501584        0.00037122216851
C            0.56977702641736       -0.56669191722986        0.00023274376602
C           -0.00137677015581       -1.80075099391997        0.00035285560309
C           -1.42200100976975       -1.92710512203306        0.00065668236084
C           -2.21084685324850       -0.81942136111905        0.00079637793487
C           -1.65519868340676        0.51715585833002        0.00065375888597
C           -2.70245715706101        1.40208866480850        0.00085383939573
C           -3.93751692699953        0.65576759433417        0.00114444845027
C           -3.65826380124374       -0.66758659964813        0.00110451040696
H            2.96836163525780        3.02422654258696        0.00024343095087
H            3.97927447443149        1.61480012464750       -0.00021759565273
H            0.35116533743598        2.76975097127180        0.00015486907957
H            0.60985865382221       -2.69146205936798        0.00022388757946
H           -1.85500973975893       -2.91774326082344        0.00075841647702
H           -2.63997529728021        2.47560813298484        0.00081565875851
H           -4.91172629134298        1.10942584507464        0.00135002889725
H           -4.35507622425702       -1.48462401394407        0.00127383515690
