27
 energy: -48.570624764709 gnorm: 0.000740988892 xtb: 6.6.1 (8d0f1dd)
N           -1.65841137621552        3.96128558072998       -0.07258254047830
C           -1.19109204210461        2.90940349008286       -0.03236220774478
C           -0.58550902911191        1.64586290337061       -0.00367640101812
C            0.81818609375189        1.55496067656561       -0.03618526389134
N            1.59393715376784        2.69612136795091       -0.03876276490200
C            1.39983942506110        0.27569014824126       -0.01597131956728
C            0.60127544998723       -0.90489139265127       -0.04347085577311
C           -0.76831982092181       -0.85061537760785       -0.02700231565848
C           -1.39089727486304        0.48483899264423        0.01277359000247
C           -2.74513130477054        0.23844790041642        0.02874023489038
C           -2.87210126899747       -1.17807612147679       -0.00096669842441
N           -4.03367168361212       -1.86314456541018        0.03790567694465
N           -1.69113761465604       -1.82606565157096       -0.03440365645773
C            1.54026461484475       -1.99744479511277       -0.04345425970326
N            1.16851850603006       -3.27222070171062       -0.07791992866261
N            2.80100486750018       -1.56291090784840        0.00892194050434
C            2.73386341922420       -0.20919032143073        0.04569729447243
N            3.86894661149621        0.51453383941401        0.12647021766538
H            1.07694475059355        3.55358188676948       -0.17927575083942
H            2.45262225991298        2.64617584613328       -0.56553157839696
H           -3.55364976862615        0.94204351079073        0.05706805744397
H           -4.89886465915398       -1.37536700819209       -0.10877955954729
H           -4.00378834904548       -2.85522558355253       -0.11736903726643
H            0.17769992954693       -3.45979374014741       -0.07414942111677
H            1.84952377480365       -4.01045802447069       -0.05434595399724
H            3.81659630510814        1.44286812033874        0.51221525352389
H            4.70835468315009       -0.01383875816582        0.30490138549802
