27
 energy: -44.542230657227 gnorm: 0.000704328987 xtb: 6.6.1 (8d0f1dd)
N           -3.80248789138151       -1.88657027642196       -0.04817112810928
C           -2.80397173407588       -1.31365557586676       -0.01650821117366
C           -1.55761107823037       -0.67197324240282        0.00357374030901
C           -0.39474409990680       -1.44217110709694       -0.04905765643367
N           -0.44948848766333       -2.83568391587831       -0.07177194761468
C            0.85051893399787       -0.77758334480769       -0.03305787575780
C            0.94469564665411        0.64181589115639       -0.05759966434945
C           -0.17762381967498        1.42982914531835       -0.02232626496809
C           -1.48906926551769        0.74491768562348        0.03150198145048
C           -2.45851560795762        1.71341028161625        0.07425976015393
C           -1.81165675108573        2.97873588871628        0.05105782403519
C           -0.44700379637139        2.81911773564458       -0.00474692526612
C            2.37409806534178        0.97103680139095       -0.05815417800556
N            2.84733909772297        2.22198553036006       -0.10411454498226
C            3.08857369825095       -0.20502571399844        0.00670620543312
C            2.17206159309807       -1.28545628450639        0.04961235996878
N            2.51101294112518       -2.58311084354524        0.16367078225727
H           -1.39944545374805       -3.18448564707831       -0.12426977162291
H            0.14159198232750       -3.26163795290625       -0.77289951288167
H           -3.52017150921936        1.55682979359698        0.11613860610950
H           -2.32747001918857        3.92373228411441        0.07469686044391
H            0.27181813497068        3.61913824416022       -0.03182589081344
H            2.20252992807025        2.99223670136451       -0.11048619015125
H            3.83508857455186        2.40115768657131       -0.07643814766668
H            4.15757254784528       -0.30218808741017        0.04082339443512
H            3.46651522280110       -2.80884834212080        0.38788016629418
H            1.79779385886315       -3.22732285399259        0.46755312680567
