24
 energy: -41.385830640385 gnorm: 0.000674963188 xtb: 6.6.1 (8d0f1dd)
N            4.13885175866497       -0.62644886376372        0.01104346303307
C            3.00057747266775       -0.45806850518940        0.00444771775902
C            1.60680878730189       -0.29255660865676       -0.00112052569303
C            0.77765318068305       -1.46600590148464       -0.00305712120161
N            1.36845174445429       -2.68181099714512       -0.01375102766268
C           -0.60851659407537       -1.30185016977612       -0.00211149493784
C           -1.19644384202911       -0.01242978393926       -0.00220573110130
C           -0.42671198409894        1.14069644703041       -0.00250993275535
C            1.04514822531240        0.97727527731694       -0.00105143085752
C            1.52926650284040        2.29475506059018        0.00096540410913
C            0.40840262453315        3.10254500927289       -0.00012583913559
N           -0.77375103612149        2.41759941138601       -0.00189412707182
C           -2.61172560064947       -0.16825604883701       -0.00015547398518
N           -3.44017038832719        0.86986053684713       -0.00032424220867
C           -2.88749589870941       -1.56640380012153        0.00176997962321
C           -1.69540707926770       -2.24131564505903        0.00054848489045
H            2.37114180330277       -2.75338735216017        0.01304794365221
H            0.81447734938739       -3.51722662459017        0.01507935636742
H            2.55343141654445        2.61122954769082        0.00256756757563
H            0.38617724340324        4.17895344602686        0.00042473399425
H           -4.43995568791428        0.76338218580559        0.00210281752870
H           -3.01173852801935        1.78768899356018       -0.00125314922452
H           -3.86892504573127       -2.00241908352118        0.00408002985766
H           -1.59334117985221       -3.31262440368291        0.00152772094438
