25
 energy: -45.127014898035 gnorm: 0.000823279451 xtb: 6.6.1 (8d0f1dd)
N            1.29894612810671        0.17076752459120        0.10099039393057
C            0.15308481211205        0.11003617131245        0.01928010429183
C           -1.24843158725552        0.05091727259658       -0.00546964145481
C           -1.96885653818221        0.25357957526611        1.21519432298326
N           -1.27243487656650        0.48528973799168        2.34949238079650
C           -3.36644787628080        0.20096478449247        1.19723308138692
C           -4.08690613155933       -0.05248991118445       -0.00598627136121
C           -3.42027132621731       -0.25345513224881       -1.19673916707368
C           -1.93969809218668       -0.19600426189925       -1.18344493240018
N           -1.51476558633318       -0.41498243913974       -2.43139918035607
C           -2.65101992655719       -0.58901690444141       -3.12940203653566
N           -2.63337250747167       -0.82980051403544       -4.44259357863678
N           -3.82370769851080       -0.50287733932395       -2.43953143071854
C           -5.47881163136192       -0.04116699227172        0.30390100812704
N           -6.42915728889678       -0.24893270487958       -0.61085168877884
C           -5.60354944597428        0.21836872511287        1.68848154173743
C           -4.34182636247532        0.36307453932337        2.22262602100558
H           -0.26820183712805        0.53200566650498        2.31863827162187
H           -1.75005672438268        0.64902067608285        3.21623360733190
H           -3.49483557803593       -0.98189176684205       -4.93339623214771
H           -1.74770544730608       -0.90754848645297       -4.90794683081034
H           -7.40602254520809       -0.23282087323390       -0.37748763232978
H           -6.12825591688937       -0.41572312022613       -1.55903026589275
H           -6.53190029436979        0.28911413003146        2.22420538172239
H           -4.13474572106952        0.56776164287311        3.25877277356121
