25
 energy: -45.110834143624 gnorm: 0.000535928815 xtb: 6.6.1 (8d0f1dd)
N            1.23865201349603        3.77543034777318        0.02104390767187
C            0.91124182284618        2.67344881495745       -0.00194512793420
C            0.41653477384976        1.35895302589313       -0.01495747949368
C           -1.00339171274832        1.16697598409296        0.03413464117225
N           -1.81320825342273        2.25683083432433        0.08756036212016
C           -1.49589754422016       -0.13320965296420        0.00092571255249
C           -0.64319996757202       -1.28403919999055        0.02599292376849
C            0.74989453407873       -1.12351835619395        0.00672382343053
C            1.27113192815580        0.26806482691275       -0.03262572061972
N            2.61117661891572        0.27592260441895       -0.06066978656676
C            2.97502533290813       -1.01327880438854       -0.04293125196652
N            4.26611479188133       -1.36218094146626       -0.06212829877957
C            1.86139077552276       -1.91987623878702       -0.00138852888153
C           -1.50754666710381       -2.38468477037227        0.06483418835525
N           -2.79815292462251       -2.02164205220058        0.03410652924134
C           -2.82032492050093       -0.68385122528003       -0.02521401826324
N           -3.99793831614974       -0.01273814701368       -0.09019427988868
H           -1.37023399745096        3.15249043233836        0.22934217974825
H           -2.74086914366469        2.14689023825409        0.46123993193796
H            4.96021363643863       -0.63612523543823       -0.09083917664756
H            4.54310481612089       -2.32673065322644       -0.05269146497511
H            1.92629885079253       -2.98933431711683        0.01786074530537
H           -1.24411274977941       -3.42567250980859        0.10652555784844
H           -4.01690215751639        0.86351847937425       -0.58733648443961
H           -4.80087906485486       -0.60927939269237       -0.22634385049624
