28
 energy: -48.273057960723 gnorm: 0.000697341152 xtb: 6.6.1 (8d0f1dd)
N           -4.38631807636433       -1.84280726341106       -0.11106402441461
C           -3.46168972065602       -1.15511464844456       -0.06944402615878
C           -2.40595679035097       -0.25508259669252       -0.02704999599256
C           -2.57756608148301        1.17146344954291       -0.02990931046647
N           -3.78900882682787        1.76946487440301       -0.02882350920272
C           -1.33181759063194        1.80102912666543        0.00468741719612
C           -0.34830153394841        0.81234456074639        0.02951057977557
C           -1.03494622386914       -0.50759018961948        0.00955993434392
N           -0.41510272121193       -1.67794730214582        0.04811887367786
C            0.91321578013213       -1.69443594332797        0.07233818361544
N            1.49560001686961       -2.94703660589656        0.12192774428931
C            1.67720072131722       -0.51919440978768        0.01004764078746
C            1.03182403464621        0.75324839863693        0.03050693916628
C            2.07459146334758        1.75410055404959        0.01878737399089
N            1.85469136445144        3.08201658970669        0.03021904612391
C            3.30248976019868        1.10628323956069       -0.04571788690275
C            3.07906273611552       -0.27947179251842       -0.07684085355425
N            4.03445812378398       -1.23740739937672       -0.16271104297295
H           -3.86214714950680        2.75982443450601       -0.17944504380773
H           -4.60575307541635        1.20011268646938       -0.17191608548553
H           -1.19073423794759        2.86764253173096       -0.00005031283659
H            0.80163952978558       -3.66972688340062        0.25975745961454
H            2.29528021990721       -3.03413246428365        0.73151894801811
H            0.92043859804833        3.41599543652221        0.18572378395868
H            2.62291297642510        3.71894108967132        0.14583083345092
H            4.26489780706978        1.58204828926422       -0.08826774560526
H            4.96490223186188       -0.94018451577631       -0.41039496825571
H            3.74675680575393       -2.13842542809330       -0.51021828655318
