25
 energy: -45.112636751665 gnorm: 0.000607121902 xtb: 6.6.1 (8d0f1dd)
N           -3.78550960571789        1.92045060021298       -0.04234578035179
C           -2.81736118700723        1.30176302732537       -0.01037876866145
C           -1.57728284436541        0.63848375859442        0.00851882925586
C           -0.39474756726225        1.42311639521564       -0.04220248549660
N           -0.48124353884909        2.79542222361691       -0.07540627919305
C            0.83233642088431        0.75691006323617       -0.01377657307970
C            0.93223675298207       -0.66080597316238       -0.02699871040825
C           -0.20211735971385       -1.45881826279753       -0.00817182586130
C           -1.50865517061852       -0.75464225243099        0.03003528239425
N           -2.51341771371929       -1.63329501230923        0.05783468514991
C           -1.93455173315450       -2.84147663002171        0.04022786928979
C           -0.53611013840161       -2.80561785818944        0.00169621899490
C            2.34215957892623       -0.93017792989201       -0.03795734068107
N            2.91174282866329       -2.13089671645706       -0.07158987484149
N            3.07246804403877        0.20163530566656        0.00347127455430
C            2.19578633640830        1.21334222524468        0.04171843280034
N            2.61807130524372        2.48311308877042        0.12751737872720
H            0.22180273843137        3.28097172130456       -0.61010270741641
H           -1.41749364759779        3.15649394223356       -0.19888565344425
H           -2.55192978360856       -3.72341825625282        0.05465976630163
H            0.11472305720243       -3.65970504668643       -0.01707894026817
H            2.33836566754336       -2.95610860300362       -0.07189058790932
H            3.91440430934479       -2.20421405964471       -0.07449165689211
H            3.60552356081847        2.61401062509487        0.28200465198863
H            1.98925603772885        3.18524900333172        0.48009818844804
