23
 energy: -41.657862050683 gnorm: 0.000827141581 xtb: 6.6.1 (8d0f1dd)
N            1.29582611240191       -0.05045559354670       -0.27820027247482
C            0.15305524357563       -0.11466154951299       -0.17186157117276
C           -1.24971275385488       -0.10156435613351       -0.08573871375286
C           -1.96200232612773        0.95771339650503       -0.69259045897912
N           -1.27771721374711        1.93763984584275       -1.35713325152423
C           -3.37299238457172        0.96483089740932       -0.62124693419069
C           -4.10300425007344        0.01188493788566        0.15380841817451
C           -3.42936675448585       -1.00893735150608        0.77626247144251
C           -1.94884540784702       -1.07659158912484        0.63084137474803
N           -1.52701959438851       -2.14224230032276        1.30111544983972
C           -2.65984891173185       -2.67231266199517        1.80271631739842
N           -3.80537584418380       -2.05670395752111        1.52774635175386
C           -5.50297849704006        0.33534828301447        0.04711658672975
C           -5.63685826551539        1.40391467011888       -0.78217380237263
C           -4.33383172998017        1.79745645853480       -1.24311949371471
N           -4.11723807039285        2.76803987960909       -2.14372011194862
H           -0.27077235294257        1.89496142617176       -1.27258079121901
H           -1.66504331400495        2.86776148094340       -1.34902864156946
H           -2.63195509447225       -3.56338652226496        2.40398256954141
H           -6.28261456696853       -0.20658471345754        0.54702598016154
H           -6.54930481653926        1.88443615361007       -1.08281135917577
H           -3.23917378252182        2.80195470416639       -2.63616176034333
H           -4.91558542458774        3.17982846157401       -2.60097835735175
