27
 energy: -44.547589178556 gnorm: 0.000854517958 xtb: 6.6.1 (8d0f1dd)
N           -2.21288057366689        3.75048885757970        0.00169170512949
C           -1.55901293369672        2.80400705635854        0.00198229977780
C           -0.74413233021664        1.66079573009166        0.00041455480145
C            0.63782105640997        1.79678134751195        0.00006631009964
C            1.43750913108855        0.65678633114492       -0.00295602695877
C            0.88517438600747       -0.65364441613523       -0.00738200538046
C           -0.48574178460824       -0.84260617528084       -0.01191013606944
C           -1.33442016978688        0.37353329163607       -0.00445775358639
C           -2.64501104744389       -0.03206535561695       -0.01018980000762
C           -2.65673354447838       -1.45679030646132       -0.02642688057708
N           -3.78881897533571       -2.21024677225058        0.01050861174305
C           -1.34646638890920       -1.94142832742528       -0.02673482030085
C            2.00053643226679       -1.57982008240755       -0.00294758449529
N            1.87622445910191       -2.91505157124948       -0.01329245269023
C            3.18342006716356       -0.85061057833978       -0.00148138305353
C            2.86218090294439        0.51681476370128       -0.00143685400106
N            3.73954465307398        1.53223479258509        0.00913791219687
H            1.07373797643395        2.78712669921943        0.00398268760821
H           -3.51665831462927        0.59526047921157       -0.00596898679440
H           -3.72250803266878       -3.18932077560341       -0.20835280245069
H           -4.66286819559485       -1.75726390534830       -0.19422991214977
H           -1.08540356333738       -2.98496903367802       -0.04244812206749
H            0.96045188933497       -3.32070090359131        0.05359450075145
H            2.68589398028972       -3.50544362884206        0.05116977197331
H            4.17723062975703       -1.25836914824924        0.00120668840163
H            3.41207768854483        2.48100567648960       -0.01179793935336
H            4.72773009555525        1.35695261374997       -0.01515718814651
