31
 energy: -55.426063868740 gnorm: 0.000758576094 xtb: 6.6.1 (8d0f1dd)
N           -2.36432486428889       -3.76866520763833       -0.13395814701428
C           -2.16678007315954       -2.63771132639504       -0.07080686692124
C           -2.03199766673908       -1.22958576027233        0.00893684725399
C           -3.27052086776759       -0.58133089212667        0.28556808561767
C           -3.51798672253731        0.78492044535400        0.15234270997017
C           -2.63021071949561        1.79462477860989       -0.15763143862713
C           -1.24101205854327        1.76162573305677       -0.21443434782997
C           -0.69529826637063        3.00575551987899       -0.62277041664137
N           -0.38062959938642        4.01393808175030       -1.07284948631117
C           -0.33515978799095        0.68777740928059       -0.00059429174667
C           -0.72403414047111       -0.72808909968613       -0.13625031264755
C            0.28863388593500       -1.67455636159077       -0.37019597446186
C            1.62484572790420       -1.35720674811775       -0.27106355842247
C            2.01455882266049        0.01114604933480        0.11889898246094
C            3.37448542245681        0.04421513247344        0.24970584291469
C            3.86566728206864       -1.26771703359889       -0.07165102179694
N            5.16643082134059       -1.60300171024162       -0.05960469556568
H            5.86417012454699       -0.91735065699974        0.16744656031744
H            5.45650704976175       -2.53052352988770       -0.31305320309495
C            2.79233664072228       -2.10859089235361       -0.38527037078489
H            2.85917728546695       -3.14453099255681       -0.65531994931610
H            3.98254097578871        0.88461521894383        0.52438725971004
C            1.00870355210628        0.99530869333956        0.22346230634454
C            1.43414599969393        2.27601438781094        0.63269754690531
N            1.86783302565699        3.24268517717560        1.07687382598731
H            0.01008431640877       -2.69987409715419       -0.56629404039847
H           -3.06940181142762        2.76841460397291       -0.33899337729366
H           -4.55285022274983        1.08130868196740        0.27099165001546
N           -4.32241524526055       -1.36115907239296        0.65991792244630
H           -5.23950986067610       -0.95559927249487        0.71202215439907
H           -4.24919926105311       -2.36346929724131        0.63792652963124
