33
 energy: -64.462690988352 gnorm: 0.000794174364 xtb: 6.6.1 (8d0f1dd)
N           -5.28561378529463       -1.25157367364780       -1.15862940771272
C           -4.26338484731087       -0.89912388956618       -0.76810845289847
C           -3.00925087416456       -0.45957245259999       -0.29497677877209
C           -2.79751412232582        0.91556687134858       -0.30769667120117
C           -1.62309471037096        1.58823652522915        0.19811556901463
C           -1.85240360887461        2.95669768480154        0.48160959308062
N           -2.11069358852654        4.04963854870568        0.72280740351796
C           -0.31982391562798        1.11829203715483        0.30689992443641
C            0.70144756541074        2.11133088019307        0.51592121994522
C            2.00366630696361        1.81198321386771        0.30583211791994
C            2.40430965360160        0.47565157226880       -0.09860937387173
C            3.76915782216707        0.50373662429037       -0.32591536965004
C            4.60343221183988       -0.53007488529843       -0.74872377966701
N            5.33249916261326       -1.34642476956763       -1.10066008939288
C            4.23972344710247        1.85638902510749       -0.04273177486961
C            3.19997730261329        2.62991165561618        0.33272080710766
H            3.21944646573639        3.66732709516150        0.60511261411020
H            5.27011773773763        2.14712435160851       -0.13341489120940
C            1.42776521175465       -0.54560417986567       -0.13082943054877
C            1.81464238179052       -1.84866679510577       -0.51620039602778
N            2.12825083252660       -2.87240482421670       -0.92789281921826
C            0.09263516404780       -0.25808524488844        0.14281232207103
C           -0.79018823841397       -1.36250794344627        0.44261000567677
C           -0.17333626667255       -2.46809313176422        1.06790801355110
N            0.23766719334234       -3.35206715308181        1.67743201230212
C           -2.16210166335725       -1.48420371280560        0.25058812737116
N           -2.76593374173727       -2.65313348167695        0.56589114024839
H           -2.20893970900814       -3.44050621616113        0.85347769679968
H           -3.73840854893523       -2.79833101330027        0.35541386673013
H            0.40032906428520        3.12074376160348        0.75506722638727
N           -3.76964345438673        1.71207049266005       -0.80345528002704
H           -3.68341984378456        2.71362430093109       -0.77109018680966
H           -4.63822652133891        1.31158976584960       -1.11671881189217
