20
 energy: -36.078061595256 gnorm: 0.000178424147 xtb: 6.6.1 (8d0f1dd)
C            3.62010524360437        0.00005510212496       -0.00027434987774
C            2.98930691669999       -1.24398056663573       -0.00508507517699
N            1.71393134173333       -1.54859542947906       -0.00245624045916
C            0.65290672683222       -0.75835146558207        0.00071877565293
C           -0.56605967627945       -1.44284183593858        0.00373611055833
C           -1.75266036948442       -0.74279218475991        0.00236045491058
N           -3.02742116241883       -1.14417076429795        0.00363824922965
C           -3.72108117976280        0.00005526043492        0.00003781891975
N           -3.02742149857136        1.14428118079945       -0.00361481024475
C           -1.75266053376910        0.74290255158429       -0.00244516707574
C           -0.56605999961432        1.44295213886546       -0.00392180951842
C            0.65290673300194        0.75846169348946       -0.00100982629814
N            1.71393154945210        1.54870560390271        0.00207364894525
C            2.98930743165586        1.24409070462876        0.00459163696565
H            3.62952359405792        2.12186483095736        0.00944025719287
H           -0.54887073374731        2.52172400690557       -0.00611575040547
H           -4.79643111367716        0.00005523179344        0.00008729986182
H           -0.54887032542544       -2.52161370317209        0.00592867724319
H            3.62952270244555       -2.12175466348736       -0.00998894599669
H            4.70222692616692        0.00005505236634       -0.00032163512691
