28
 energy: -51.475969512198 gnorm: 0.000206708141 xtb: 6.6.1 (8d0f1dd)
N            2.99705104240874        3.06478045499670        0.00134206517039
C            2.68465376255643        1.95857570806867        0.00100024892864
C            2.41674484596748        0.56683996676499        0.00037997749395
C            3.60930855016336       -0.22721684540799        0.00103708744688
C            3.64974207199530       -1.61670607339573        0.00014116680250
C            2.57984392504693       -2.51419067859418       -0.00115418715205
N            1.29440303812684       -2.33656223341348       -0.00104463430070
C            0.56970246414345       -1.21169389901661       -0.00053555577459
C           -0.79831033330841       -1.45204093243233       -0.00014463709266
C           -1.71472154032511       -0.41235618226498       -0.00043349324848
C           -1.22962657940810        0.97332705910873       -0.00131485539661
N           -2.24920927935701        1.85324806252863       -0.00179313633762
C           -3.36210382864075        1.12192324011489       -0.00123438396821
N           -4.57820969954195        1.67064161788708       -0.00142029547413
H           -5.39957477298171        1.09112351854042       -0.00099045465577
H           -4.66022316465247        2.67232751109635       -0.00195555465031
C           -3.10137788857942       -0.30699418179253       -0.00043403021980
C           -4.08554367812932       -1.28426460325972       -0.00005293333333
N           -4.94366768546114       -2.05262069807744        0.00062435941733
C            0.11838950793006        1.23208355747585       -0.00135355376440
C            1.06518271251414        0.19054438821219       -0.00066937444195
H            0.44787507542285        2.26011352968188       -0.00176774184963
H           -1.12451054759023       -2.48064631349296        0.00015627473003
H            2.85533937147236       -3.56639325276295       -0.00214662768416
H            4.63844828462497       -2.05857692685676        0.00049885444048
N            4.79681508455498        0.42871443121432        0.00235071655049
H            4.83941294170170        1.43274833318860        0.00293897239194
H            5.65407288854599       -0.09316739601160        0.00272273387181
