28
 energy: -51.468086542848 gnorm: 0.000761808497 xtb: 6.6.1 (8d0f1dd)
N           -4.83906170250835       -1.96131367974206        0.68388186780821
C           -4.01643110606502       -1.18815304882009        0.45515937731980
C           -3.06222312054234       -0.21686908423032        0.17585062708811
C           -1.67032581428809       -0.36784715562803        0.09038762808344
C           -1.11177048328063        0.96663287769691       -0.24026119698236
N            0.19360061200008        1.18018745294615       -0.34026222605745
C            1.03029331152261        0.16642967021550       -0.21241811994917
C            2.37602474556835        0.54537017527891       -0.01669064046188
C            2.55986194491171        1.94276858030758        0.12102363129545
N            2.79234190191563        3.06197925297454        0.23344628990611
C            3.54625777661022       -0.24364617418236        0.11221330758117
N            4.69574520656605        0.38954025988533        0.45316058106339
H            5.56471981208466       -0.11242535210610        0.44740397031018
H            4.71569464542979        1.39183092743936        0.53168385879451
C            3.61710654735321       -1.61933034265602       -0.14770662134454
C            2.56949583751623       -2.48875949736034       -0.40564252413343
N            1.27904062828983       -2.33267785210616       -0.25421932546819
C            0.55644189031396       -1.24075085321642       -0.11126223504264
C           -0.81467541374179       -1.44154082078037        0.13064450874211
H           -1.16632458731806       -2.45358296794417        0.26762058970825
H            2.83869828331730       -3.50539125621373       -0.67858109876421
H            4.60969021331111       -2.05185842684015       -0.13281789834899
C           -2.15728652041003        1.85581850055031       -0.36517588590814
C           -3.35683858342991        1.15212562757472       -0.10058618527259
N           -4.59140458933393        1.67045175168053       -0.11451212157055
H           -4.73569046872266        2.64348186645349       -0.31849001730789
H           -5.38415012403691        1.08515113544961        0.08847404150673
H           -2.08446684723187        2.89723888757219       -0.60844773149621
