25
 energy: -46.723686574106 gnorm: 0.000987551746 xtb: 6.6.1 (8d0f1dd)
N           -3.75235094062206       -2.21443599535907       -0.04839734232510
C           -2.86834205819263       -1.18629158312618       -0.00187986200599
N           -3.45794635005928        0.00023311431046        0.04321983400789
C           -2.86824277846152        1.18681710636693        0.00105104652121
N           -3.75216953094404        2.21515406542961       -0.04263664703035
H           -3.44162780444141        3.16567378929435        0.03930432709369
H           -4.72909736401213        1.99992669250046        0.04441324420687
C           -1.50426758469118        1.52593701637610       -0.02740232449249
C           -0.36641060629767        0.73509670796574        0.05450198943100
N            0.78458637964054        1.43080335502446        0.05372823906277
C            1.89878195629468        0.74793710859791       -0.01694659662285
N            3.15848406214849        1.15701551022631        0.04827232695610
C            3.86023994562809       -0.00012201814189        0.04209128151885
N            5.19208949600156       -0.00021561615878        0.07804315966867
H            5.68038120021122        0.87613967631408        0.10561922717668
H            5.68029765214641       -0.87666758078266        0.10400155599947
N            3.15836416349954       -1.15718824360066        0.04616558245850
C            1.89870365546235       -0.74786524523699       -0.01833580466280
N            0.78444656316594       -1.43073748425968        0.05085599330815
C           -0.36648140397476       -0.73491991879495        0.05294347561109
C           -1.50439562927920       -1.52546733577327       -0.03089771271597
H           -1.28432370388185       -2.58189121691349       -0.12685416000668
H           -1.28411899519247        2.58254407222531       -0.12103506129189
H           -4.72927888018413       -1.99935142615448        0.03904413808253
H           -3.44191205176445       -3.16519945962965        0.03118674325065
