25
 energy: -38.705476213549 gnorm: 0.000368618894 xtb: 6.6.1 (8d0f1dd)
N           -3.89781463651920       -1.69493485046923        0.07906867514105
C           -2.94549761223102       -0.70446762974169        0.02145549032931
C           -3.38593989993181        0.61115776723203        0.01632384471010
C           -2.62242445604879        1.77537722042170        0.01806864163949
C           -1.25653750738899        1.92555067099303        0.01120767948469
C           -0.20212216567956        0.98958654675012        0.00779188063334
C            1.08740997751991        1.50714555998758       -0.01216703763674
C            2.20533491031147        0.68379199591000       -0.01100384008438
C            2.01530676168808       -0.77589957892929        0.01819101184743
N            3.21112232646289       -1.41054877347675        0.01797759594467
C            4.11952146921658       -0.44233786553700       -0.00954023526648
C            3.57895459635709        0.85866182869681       -0.02874179489628
H            4.13135609152907        1.77795975902993       -0.05232030193121
H            5.16712810705491       -0.69423932966553       -0.01598795458983
C            0.75636702168814       -1.30471280567722        0.03769033967424
C           -0.39200173627993       -0.47387446556083        0.02847946809821
C           -1.60348124214471       -1.13710511747584        0.03408881857476
H           -1.51015178569122       -2.21935429919529        0.05023872713273
H            0.63124240284713       -2.37751445023018        0.05782577202439
H            1.22087198985204        2.58083012782459       -0.02880692975307
H           -0.91624014525960        2.95551771037611        0.00562831021139
H           -3.19429679135141        2.69499710614691        0.01790891863976
H           -4.46098903980702        0.74795090443591        0.01407082015650
H           -4.84976640072406       -1.45054101252146       -0.13225703854755
H           -3.62415424947002       -2.63637545502439       -0.14292348903646
