29
 energy: -51.184117578356 gnorm: 0.000893966975 xtb: 6.6.1 (8d0f1dd)
N           -1.96276123632372       -3.72522741567641        0.08610343382711
C           -1.85584507366953       -2.58115394079525        0.03844699752457
C           -1.81974325286321       -1.16521903250280       -0.00098887061526
C           -3.11411533931259       -0.58625860259324       -0.01183282085450
C           -3.41873904697096        0.78189766770631       -0.01605323707469
C           -2.57162314259787        1.86490462148664       -0.00550276462844
C           -1.17956631466958        1.89518411913674        0.00282124828971
C           -0.61827480191155        3.19929892881592        0.01990961317315
N           -0.24687816880810        4.28453852925125        0.03542058237069
C           -0.21915429827232        0.85683151046324       -0.00848063289051
N            1.01612753448379        1.32479643221862       -0.00563364375716
C            2.04500069483502        0.48778198893109       -0.01988377806380
C            1.85970604738939       -0.98748765974429       -0.03922009612342
C            3.11754049889963       -1.56377409566736       -0.05684887916398
C            4.06035577207419       -0.51544918935898       -0.04618566357247
N            5.39532440540342       -0.66534331554353       -0.05545797657311
H            5.99540400268769        0.13986896879116       -0.04418642221719
H            5.80752845261146       -1.58111389468590       -0.07032774863063
C            3.39342292560022        0.74463301331768       -0.02392384107377
H            3.86848235118034        1.70531054925904       -0.01312608368919
H            3.34721130217803       -2.61236090648475       -0.07443061371791
C            0.56525095967766       -1.47062466514824       -0.03537714748128
C           -0.52593259024583       -0.59326591698906       -0.01803648552681
H            0.39388043297746       -2.53858093056108       -0.04737349794158
H           -3.04818021381247        2.83816743147512       -0.00252605699913
H           -4.47806050307639        1.00929351474083       -0.02536735410248
N           -4.18375843551426       -1.43146844504833       -0.04983928486743
H           -5.10969064565298       -1.05905762772909        0.05854214640710
H           -4.05668680969694       -2.42349795276526        0.05170186757248
