30
 energy: -60.510432698080 gnorm: 0.000890207138 xtb: 6.6.1 (8d0f1dd)
N           -2.85750895684567       -3.54449718610021        0.07768097763469
C           -2.61002913917520       -2.42452601513939        0.03740182685355
C           -2.46139742712345       -1.01174028296630       -0.03072310926576
C           -3.66341473455922       -0.29067959825310       -0.26972785794703
C           -3.78731732478079        1.10004576053566       -0.19497941241936
C           -2.81548495825717        2.04073783710948        0.07841705866056
C           -1.43345076557475        1.90952861209840        0.18371618580309
C           -0.81541395763690        3.12929973228794        0.56759836667937
N           -0.44982158916934        4.13397816133976        0.98383070715337
C           -0.60932511328762        0.76290513475330        0.02786898783063
C           -1.12617449021816       -0.60380001359116        0.09391235621914
N           -0.32261484877672       -1.66908586461047        0.25756861940832
C            0.97136201760400       -1.51323111520266        0.22831724170436
C            1.60913928282378       -0.19944985663132       -0.03162951689449
C            2.96356421145184       -0.46414220635933       -0.09147954487065
C            4.06267556050784        0.35703269539175       -0.32211160013982
N            5.02496962516042        0.95993941326263       -0.50362000403861
C            3.06740990357717       -1.89460359504492        0.16636733793017
N            1.88335770343353       -2.48076496202136        0.34929676538963
N            4.20914919190107       -2.57014346901950        0.21778909102522
H            5.08785537808325       -2.10228768582276        0.06941241306873
H            4.18041041481004       -3.55825060526077        0.40575403940163
C            0.77988908666959        0.92560593078802       -0.11524754742335
C            1.39056357049173        2.16073148655330       -0.43080879934048
N            1.96553899620167        3.08664423517584       -0.78897481496965
H           -3.17602553793597        3.05526604390457        0.20443378274355
H           -4.79243916319241        1.48181341081507       -0.32349439274736
N           -4.77576941691877       -1.00676193952860       -0.54170482893340
H           -4.74684261494024       -2.01261394401029       -0.54869023587710
H           -5.65793099802378       -0.54364133085348       -0.66799789903909
