25
 energy: -42.692758293929 gnorm: 0.000799195853 xtb: 6.6.1 (8d0f1dd)
N           -3.57946824281989       -1.99824025571626        0.04731347704409
C           -2.94348880373338       -0.79493510501906        0.03805944124989
N           -3.59343836081446        0.35247250096732        0.14519481186289
C           -2.66730455298195        1.34640496019903        0.17875434329835
C           -1.37648607144117        0.85898844516008        0.08922924302091
C           -1.51806444729841       -0.58678986141213       -0.00517936223275
C           -0.43556621266600       -1.40738297410305       -0.08602530406089
C            0.87296125589308       -0.86924370976659       -0.03401389794401
C            1.92690280000281       -1.76067534641820       -0.09319234491449
N            3.21133787393832       -1.57982813537298        0.25109773567070
C            3.79295334080118       -0.43061977406186        0.33929088928540
N            3.47950393220640        0.72024762165942       -0.25978998757497
C            2.27008703256016        1.15882134426575       -0.45100653356507
C            1.03494934886771        0.60805040713870       -0.04450096731038
C           -0.09520638991110        1.43923291512268        0.03507588924945
N            0.01738714336725        2.79694635912616        0.04025427514443
H           -0.81504136402392        3.32717009109460        0.22556874179044
H            0.89640630213873        3.23106915706547        0.25397279323220
H            2.23902457322888        2.11723934547665       -0.96704706635906
H            4.74387274428174       -0.41515163408743        0.86632908581465
H            1.69334007354645       -2.80250125926666       -0.29081690525804
H           -0.54497253330376       -2.48238799594741       -0.13459529708803
H           -3.00455113505444        2.36447405846994        0.25672875292358
H           -3.09818803434117       -2.78609004061125       -0.35128453048039
H           -4.57599814794327       -1.96007712456313       -0.09080531409887
