29
 energy: -50.400692928384 gnorm: 0.000454039861 xtb: 6.6.1 (8d0f1dd)
N            4.18557112222751        2.59675272164174        0.14678915610859
C            3.57721850163909        1.61849430885843        0.10875272327620
C            2.92295321830463        0.39475293680361        0.06365350669327
C            1.55532938310474        0.12641204565003        0.03999290331542
C            1.39819268668644       -1.34746153268852       -0.00361979480311
C            2.67123433027355       -1.91320757475779       -0.00831931263813
C            3.60412822647013       -0.87389565823424        0.03246711047294
N            4.94389735400683       -0.98852381459390        0.04457581404368
H            5.51314213515373       -0.16046096951325        0.07234596242005
H            5.38375745461181       -1.89037152056300        0.01622565270104
H            2.90445067349386       -2.96130091967793       -0.03760345012327
C            0.11679838373595       -1.84754468727868       -0.02319558162325
C           -0.98321793327536       -0.97104036656901       -0.00694053469319
C           -2.25499926456600       -1.52699900994084       -0.01180813802475
C           -3.52937265942302       -0.93187776981102       -0.00013804333450
N           -3.88317104357854        0.34310977125757       -0.01040821762583
C           -3.08158008872870        1.39829656309430       -0.01518562295283
N           -3.75733978028136        2.57987493013300       -0.00063321253282
H           -4.75232799412625        2.54704760234561       -0.13414351426947
H           -3.27105934903890        3.44282403163093       -0.16053254385735
C           -1.67911109885397        1.47098379652400        0.01298479082474
C           -0.70500533617715        0.48021853132127        0.02080323612954
N            0.53925992865931        0.96386688041049        0.04795845239520
H           -1.26205949721135        2.47052839051886        0.02975996433672
N           -4.60064566415061       -1.77798195284605       -0.03459731293614
H           -5.50639451760001       -1.36483930630572        0.10209066058995
H           -4.48293607426361       -2.75135710998853        0.18014348275216
H           -2.27624700227997       -2.61258785093618       -0.02775442388524
H           -0.06132928751273       -2.91534087098503       -0.04857750275965
