20
 energy: -36.087259192972 gnorm: 0.000871702922 xtb: 6.6.1 (8d0f1dd)
C            3.11874053276818        1.13540777610212        0.00010744900855
N            3.67262469422662       -0.05485492463115       -0.00023793365571
C            3.04481682181037       -1.21388285979206       -0.00066795818799
C            1.69177390822569       -1.52028421285036       -0.00083894306577
C            0.55699314519891       -0.69356389540508       -0.00065469848261
N           -0.58056456942564       -1.37846203309141       -0.00092443970500
C           -1.71354193005610       -0.70814439130155       -0.00082056143467
N           -2.95862186334275       -1.16844545940335       -0.00102997893789
C           -3.70730341629839       -0.05301712392943       -0.00078405126884
N           -3.07851232580337        1.12176513891942       -0.00041896324359
C           -1.78074310114350        0.78256441286799       -0.00041928794467
C           -0.61179688958301        1.49602701559626       -0.00012250736908
C            0.60471576457075        0.78619981439775       -0.00022385884525
C            1.78238922383135        1.53375168531770        0.00010114847168
H            1.63289610147154        2.60856222786329        0.00040619187453
H           -0.61060806158688        2.57719358772745        0.00019053451858
H           -4.78126790036356       -0.10927455770638       -0.00087579017878
H            1.43500823010740       -2.57264640688976       -0.00117824049455
H            3.73028136992846       -2.05623807441755       -0.00090820359653
H            3.85356870176393        1.93567060362611        0.00044000683760
