29
 energy: -51.194757331311 gnorm: 0.000860219933 xtb: 6.6.1 (8d0f1dd)
N            5.65468591531403        0.58058067743031       -0.01121925576478
C            4.51692424706387        0.41269101767607       -0.00320184230075
C            3.12242318291122        0.20273927963803        0.00218864260518
C            2.31851469575344        1.37606778037793        0.00859329251178
N            2.98047111538885        2.56764756624928        0.04568130358636
H            3.98099961417684        2.60019942302688       -0.03835485998673
H            2.46731155303384        3.42567701721727       -0.03916488284717
C            0.93051543261093        1.43562801436345        0.00535239012695
C           -0.08412310472157        0.46933342092811        0.00209935648433
C           -1.39475902782326        0.95043858303657        0.00173651258939
C           -2.47494209332601        0.08896394116855       -0.00056422163561
C           -2.24978505520476       -1.36011710585446       -0.00430971862914
N           -3.43165848522568       -2.03179949310189       -0.00734475245641
C           -4.36964524106621       -1.10698414099172       -0.00506211257902
C           -3.86766190049677        0.22809337480514       -0.00050500021755
C           -4.61191209501281        1.40257096165608        0.00427010173862
N           -5.22015417338064        2.37987792001651        0.00813868190686
H           -5.41043087868482       -1.38205498869428       -0.00653403133664
C           -0.97812804503520       -1.85440952840189       -0.00329925479197
C            0.14431468624004       -0.98604458743393       -0.00005257771150
C            1.37572884786294       -1.60764044776368        0.00095995040044
C            2.70501798088463       -1.13706794213459       -0.00003145975564
N            3.66661093635396       -2.09731694398926       -0.01870785807805
H            4.63999789189206       -1.84983553789539        0.02129515642092
H            3.41533633441158       -3.06751727155893        0.02945209602674
H            1.32021062799447       -2.69199431564307       -0.00057247998430
H           -0.82107927637547       -2.92238770484839       -0.00556238097532
H           -1.56773720195936        2.01757695464357        0.00427305382982
H            0.55037830921983        2.45248023387772        0.00892775352317
