30
 energy: -60.496481355952 gnorm: 0.000985238409 xtb: 6.6.1 (8d0f1dd)
N           -5.47855265981215       -0.84687575276278       -0.02734564638445
C           -4.34638588845425       -0.64948477819483       -0.02295160198159
C           -2.95525635662029       -0.39501743690246       -0.01990827373854
C           -2.60599339272736        0.96293892410934        0.09210037601551
C           -1.28540827398437        1.48328677929257       -0.01402197224892
C           -1.19864414039334        2.90414253838842       -0.02895734534683
N           -1.24743982701897        4.05038731844718       -0.03557829052129
C           -0.03553849341169        0.86739335689826       -0.10449261965895
N            0.93577579509443        1.78539624439903       -0.23556629656306
C            2.18418571117382        1.42889349591994       -0.15347906680215
C            2.58816390843293        0.01806595586621        0.07182486517045
C            3.98487466142683        0.05283109876586        0.04566497921439
C            4.87524265701035       -1.00947768119807        0.19327795852869
N            5.60258266603566       -1.89120310319465        0.31364331840030
C            4.31340761370583        1.42612684007723       -0.14026102226739
N            3.26236157714426        2.21794108969739       -0.27650773179290
H            5.30864367247538        1.83368888071819       -0.17484065975064
C            1.60011198858561       -0.94349105496177        0.09664309595964
C            0.25445143836774       -0.56812877936494       -0.00701175128144
C           -0.72336130058219       -1.59374788305914        0.00046458821448
C           -0.21948696017199       -2.91367644661215        0.11800837159860
N            0.12029919109605       -4.00708588929825        0.20996020008249
C           -2.13348653057961       -1.55056640251829       -0.10716710205016
N           -2.77850616300033       -2.73022260871551       -0.25691247932138
H           -3.78370533256584       -2.76578779728243       -0.26858750865421
H           -2.26434501998029       -3.59478313186652       -0.27692564369347
H            1.86610032035643       -1.98904091362252        0.16780316007946
N           -3.59782422908575        1.85899868287924        0.26814970115863
H           -3.38818783741969        2.84357069702592        0.29467314513656
H           -4.55936373679863        1.56324764716886        0.29464069749712
