24
 energy: -43.776805250201 gnorm: 0.000942426584 xtb: 6.6.1 (8d0f1dd)
N            3.77090738055204        2.39812919759987        0.88442008427673
C            3.11658265732589        1.49219046267533        0.60555990122138
C            2.36832905286074        0.37022727340955        0.26613224365182
C            0.96999311501470        0.25138441319672        0.20688442576223
C            0.67539920911231       -1.15316888374017       -0.21552945407762
C            1.87450476585813       -1.78946913723719       -0.43850275710168
C            2.91986999136142       -0.88064346091938       -0.13286061677750
N            4.22948117530556       -1.13978542336603       -0.21249865329986
H            4.89834811040628       -0.42883630091830        0.03176332034127
H            4.55556199465476       -2.04270828502865       -0.50904377129460
H            2.00803098963784       -2.80403104438863       -0.75782303807600
N           -0.55757396182538       -1.65013192319139       -0.25159939530761
C           -1.53991601965111       -0.82418703661583        0.02511703420345
N           -2.66081908441295       -1.25136757709687        0.53684160349279
C           -3.83661818984708       -0.69818482029417        0.68710448674528
C           -4.36572184253754        0.35359001540251       -0.06026842073946
C           -3.54593228947103        1.24367709141116       -0.74848093626166
N           -2.27420962743826        1.44753140110674       -0.50093141698919
C           -1.33885859024678        0.68537266878377       -0.03292749254470
C           -0.05514337040531        1.16171056424670        0.28578590153495
H            0.11425263392133        2.21562823625414        0.45254728657191
H           -3.98424259335874        1.96773432015130       -1.42539143333321
H           -5.43536604955450        0.50912057279150       -0.06863840062868
H           -4.47656196146423       -1.22026825333575        1.39134672452924
