30
 energy: -56.499464812337 gnorm: 0.000786536929 xtb: 6.6.1 (8d0f1dd)
N            3.59554962593660        3.00110963343931       -0.44453251292312
C            3.05205350749031        2.00523531521522       -0.26414534606579
C            2.47341975313969        0.72961963623833       -0.04566481356236
C            3.43546534004856       -0.23988253421968        0.42340881221068
C            3.27457985279507       -1.61201594534232        0.36082236792111
C            2.17153968903314       -2.33168759312450       -0.10110071215330
C            0.88478144465717       -1.89770896887948       -0.31366823831557
C            0.03839817892282       -2.87261478224436       -0.89969085637642
N           -0.54082168864485       -3.67490037451719       -1.48016016833036
C            0.30807441746413       -0.59298873053569       -0.09001635980565
C            1.09702840472142        0.62073210009804       -0.22160613362177
C            0.39522486130856        1.84615433184532       -0.47821624407416
C           -0.95192598568365        1.91793965948983       -0.34632372990994
C           -1.72547843284488        0.74456334706653        0.03370246298569
C           -3.04042331921423        1.14755028824455        0.18613443876449
C           -4.14773690533049        0.38795060415397        0.56415351187319
N           -5.08941963778211       -0.19066869134062        0.87989770880577
C           -3.10455494007048        2.56799029931554       -0.12056066781775
C           -1.87065796594031        3.02447607151006       -0.43855179818965
H           -1.59523495522746        4.02528693059199       -0.70961387266386
H           -4.01765240215165        3.13374128285142       -0.08798270633534
C           -1.06659266783708       -0.50277591456978        0.10814418991381
C           -1.82368114470332       -1.64121579027792        0.46873964568725
N           -2.44493941058946       -2.51882614963786        0.86726187829369
H            0.96718786108754        2.73639015513596       -0.69581090480986
H            2.34409855730092       -3.38551754890213       -0.28353033412495
H            4.14035767714358       -2.19962664216648        0.63824177938866
N            4.60666736900314        0.24487047335684        0.90459637026675
H            4.81897247070922        1.22685905208707        0.86759628739737
H            5.34206991705073       -0.39200670348545        1.15427562807117
