27
 energy: -42.133799573706 gnorm: 0.000782841346 xtb: 6.6.1 (8d0f1dd)
N            1.75355656726498        2.32325688894630        0.67851815385777
C            1.83737858258728        1.04923413176189        0.23541356582356
C            3.16082180984785        0.60224296503615        0.03835748861508
C            3.64357824291837       -0.64427572445746       -0.28048803730190
C            2.94477493371892       -1.84232903100790       -0.31528252023238
C            1.59858025908562       -2.02426618559639       -0.05992508936292
C            0.53646352978744       -1.12625048569457        0.07719252915556
C           -0.71996335905637       -1.73409533333734        0.24245264610735
C           -1.88051260357049       -1.00202465034974        0.19592733106673
C           -1.81719024349713        0.42564077622251       -0.08423972225813
C           -3.14539548638308        0.82856327078320       -0.17639161481561
N           -3.98628409387735       -0.20322380071256        0.03646722146912
C           -3.25872524632569       -1.29145086046073        0.24985722430585
H           -3.72457579126632       -2.24104178385181        0.43840264310873
H           -3.54950859256996        1.80826924132072       -0.36516206524157
C           -0.58022410295435        1.06957820430924       -0.18478625545436
N           -0.59779651015437        2.44829097043267       -0.43879324383367
H           -1.52181713597437        2.75780386043036       -0.70711333581532
H            0.10753412661922        2.76780786668318       -1.08933973916337
C            0.61474225301535        0.34742279197691       -0.00182225035603
H           -0.77025164005707       -2.80943613306925        0.34438901731407
H            1.29497393079790       -3.06428842857159       -0.00634228744836
H            3.52477528722986       -2.73542069384294       -0.50407864473889
H            4.71090171877956       -0.70645863436233       -0.45455913227650
H            3.90709748093687        1.38085481708153        0.15216095860760
H            0.85423008009199        2.71516362314067        0.91209077789846
H            2.59091542430547        2.81130298258906        0.94433384376914
