26
 energy: -47.224843315756 gnorm: 0.000569735804 xtb: 6.6.1 (8d0f1dd)
N            0.96302822481628        3.62704498353570        0.01834023558057
C            0.99905328946820        2.47810253245652        0.01376718382763
C            1.16495386306857        1.07506804791123        0.00349454156786
C            2.49828123867647        0.62656158719666       -0.06815438907940
N            2.97573386586653       -0.61275893324529        0.07117979673224
C            2.31633396845147       -1.74237427432887        0.09515618034569
N            3.09214987727565       -2.83544714469037        0.28290347316146
H            2.69224387229745       -3.74835459377238        0.39567572028095
H            4.07000370997747       -2.69626595345549        0.46608674638880
C            0.92490221776073       -1.98934540201509       -0.11405014936906
C           -0.13557462695239       -1.12351729118699       -0.11500870255779
C           -1.43976266155565       -1.69410164214904       -0.27223441542556
C           -2.52537638897561       -0.88813660359724       -0.19554666827247
C           -2.33307769695849        0.55027794930124        0.10126810424250
C           -3.59896794424109        1.05534320816943        0.25831224055453
C           -4.46988708612548       -0.04716684666727        0.01026681281709
N           -3.85981298837471       -1.18030342163565       -0.25702666790431
H           -5.54651659598318       -0.00974081986309        0.02490885310225
H           -3.89092282210067        2.05808690062625        0.49501042789954
N           -1.12003071333628        1.10234121884680        0.18102979065305
C           -0.05759172134306        0.34419932708994        0.04926664403330
H           -1.53507216157028       -2.76283950296788       -0.40549967813740
H            0.67898443664894       -3.03680906147281       -0.25602672466933
N            3.47747451357617        1.54188785523465       -0.25173503328243
H            3.26711829195849        2.52449675439793       -0.26806975152531
H            4.42986172587452        1.22704260058104       -0.20736898126442
