24
 energy: -38.979473438044 gnorm: 0.000331832990 xtb: 6.6.1 (8d0f1dd)
N           -3.70783333073899       -1.74735713608263        0.01364528281728
C           -2.82973954472374       -0.70244124037588        0.00058036443668
N           -1.56511496273782       -1.10201285661433       -0.02588766052167
C           -0.42801110544761       -0.44842678850943       -0.04016105772716
C            0.70123615370035       -1.29302154805615       -0.08768675429036
C            1.96958069488925       -0.77843557046647       -0.05072148732302
N            3.15401363520672       -1.42289795165511       -0.07088420701767
C            4.07740022102987       -0.46614565343322       -0.00246563355357
C            3.55452610107636        0.83859802078000        0.06484143424517
C            2.17764557617455        0.68304763083077        0.03580969900361
C            1.07765764239809        1.52646164237026        0.05664009268260
C           -0.22101328742362        1.02973076168372        0.00899647993750
C           -1.26788084733241        1.96123224934694       -0.02055529637072
C           -2.64020002579857        1.78341444018576       -0.06379038723629
C           -3.35451660301949        0.59889579719232       -0.04809607701567
H           -4.43433219259844        0.67324697376365       -0.07520086051262
H           -3.23172348494815        2.68958163306103       -0.10149680604705
H           -0.94121211015764        2.99588491502592       -0.01872990729387
H            1.22715511093061        2.59761609130745        0.10401125444343
H            4.11797075123848        1.74915756126319        0.12538278135205
H            5.12107510421158       -0.73331418490387       -0.00332299711308
H            0.53281717477848       -2.35697519019349       -0.13709437121167
H           -4.67720654655672       -1.59969071873985        0.22620898789400
H           -3.31719870075115       -2.66297416278057        0.15087883212210
