25
 energy: -46.718708227747 gnorm: 0.000682986512 xtb: 6.6.1 (8d0f1dd)
N           -3.61571236828441       -2.18933904742804       -0.50663021939764
C           -2.81566489928039       -1.17107396349679       -0.11384778162154
N           -3.41692575122055        0.00234872566790       -0.05185873818951
C           -2.79358584655929        1.16828715551824        0.13953004635104
N           -3.59959151549767        2.18493467593406        0.52211177875729
H           -4.59278904003133        2.03837838539377        0.49338628684095
H           -3.23194716335743        3.11831262559037        0.46535329383470
N           -1.55138615562161        1.49496324096930       -0.12910761638481
C           -0.45648174054824        0.76268218924354       -0.09352419235449
N            0.64839514240435        1.31872820217781       -0.54823838216212
C            1.80519058181622        0.67859491417830       -0.41893450800676
C            3.11179287873075        1.06182666861935       -0.56630973877470
C            3.87825441894759       -0.01454151933710       -0.01825085714231
N            5.21601491313722       -0.08732319751076        0.00490880723151
H            5.77968319759631        0.65680619864062       -0.36251850730708
H            5.64697225605525       -0.88422347381614        0.43837010370909
N            3.13389336751285       -0.98357765419151        0.53621467268417
C            1.86818138384260       -0.63074693833526        0.30721958382975
N            0.77384145158656       -1.20785039993601        0.69785670857447
C           -0.40174642811947       -0.64584399792423        0.39177110044210
C           -1.48098519635938       -1.49794750055119        0.22570819653121
H           -1.23496544325759       -2.55326564949300        0.24263409448621
H            3.50099929986607        1.96055713770406       -1.00023090204709
H           -4.58519999144887       -1.99284247530139       -0.67874963487344
H           -3.29573733950931       -3.13932570811639       -0.47405563361070
