19
 energy: -36.362963356696 gnorm: 0.000931441002 xtb: 6.6.1 (8d0f1dd)
C            3.62323839615984        0.02583967808898       -0.15115074273133
C            3.05318120236257       -1.23492100448329        0.08075030987190
C            1.72848767538764       -1.57132999478021        0.08841074717951
C            0.59119527030809       -0.74707486530597       -0.15412138881747
N           -0.56068720814165       -1.33689529767600       -0.32803615766565
C           -1.69875197696297       -0.76332015146891       -0.10247778509334
N           -2.95403171249090       -1.06962239718522       -0.38017684769722
C           -3.64636372768469        0.02400746207013       -0.05920220786373
N           -2.93546800696220        1.10062459071899        0.29397166182216
C           -1.68223950249593        0.68742787685016        0.32272356314008
N           -0.54838531821648        1.31495022786687        0.28698556405333
C            0.61424140534987        0.72074350995704        0.07632951410550
N            1.68211853955237        1.49031655044601        0.12083872414074
C            2.94016273878920        1.23142016751678       -0.12910660618335
H            3.53232745116005        2.13814143226810       -0.21815898048211
H           -4.71775993642731        0.05204752438306       -0.12026982025183
H            1.46912459056417       -2.59198194386012        0.33667076329830
H            3.74909520854587       -2.04553956065608        0.25776886572645
H            4.69986492090238        0.07482451244968       -0.22767229595204
