25
 energy: -43.503961287146 gnorm: 0.000647505430 xtb: 6.6.1 (8d0f1dd)
N           -3.85777042875778       -2.50844892513396       -0.00581507846564
C           -3.19380689705768       -1.56708074538733       -0.00692179151478
C           -2.43072647742691       -0.40542392350659       -0.00855108497441
C           -1.03454655126032       -0.29005530263261       -0.00602350411980
C           -0.71730317093443        1.15677200331112       -0.00949262481561
C           -1.90936044297587        1.85702687200993       -0.01393546897149
C           -2.96489427383453        0.92047104642734       -0.01346000040512
N           -4.27559604935749        1.20266773144487       -0.01673367662422
H           -4.95005993438346        0.45648606474630       -0.01683393335088
H           -4.59463415467590        2.15491988043266       -0.02110631337843
H           -2.02053310370860        2.92315469050520       -0.01721273458695
N            0.52425623460798        1.61501941062659       -0.00833665369655
C            1.54076522683548        0.77321006993893       -0.00395623692133
N            2.70807362598866        1.41081773256766       -0.00354836461918
C            3.93085214877752        0.96827392801297        0.00009491405802
C            4.45041655862446       -0.33438452893772        0.00493665280304
C            3.73019661093663       -1.51278226909608        0.00696757448987
C            2.34844259756208       -1.66313554374506        0.00466028941368
C            1.33206446593476       -0.70931575393988       -0.00012223306393
C            0.00934075549850       -1.18269046435745       -0.00139732206593
H           -0.17492944272057       -2.25017902455133        0.00127791670976
H            1.99799691762627       -2.69083993715293        0.00695585095685
H            4.30317323425693       -2.43193143320464        0.01078906792989
H            5.52960652245747       -0.41529491031399        0.00729727603265
H            4.66435816208685        1.77173585833603       -0.00085620551945
