22
 energy: -39.534111059293 gnorm: 0.000636043677 xtb: 6.6.1 (8d0f1dd)
N           -3.83476455275464       -1.63396172275985        0.31099370296014
C           -2.87938229497917       -0.70813066233232        0.05242164097319
C           -3.29132663550146        0.62361267870617       -0.12343399535412
C           -2.47575842126152        1.73248698117357       -0.27747369826176
N           -1.19081157993501        1.86646645152820       -0.07559244721894
C           -0.22842314440651        0.97220695723939       -0.00328981159479
C            1.05010731716304        1.47086340717528        0.32198407908682
C            2.11833840647792        0.61509546966339        0.28771804397127
N            3.44477089578021        0.78460016673839        0.40062688854775
C            3.94732622021592       -0.38035251557378       -0.00264549640175
N            3.08921005882126       -1.32518082147225       -0.41759919535804
C            1.89668890666494       -0.77147737368130       -0.22319837786338
N            0.70177379826506       -1.26081130354881       -0.44528334513244
C           -0.36046628520789       -0.48943019439541       -0.24183973061328
C           -1.56588636057769       -1.17413051302098       -0.10263064085316
H           -1.43801534639173       -2.25025526400090       -0.06500104914441
H            5.00820757553251       -0.55701436829201       -0.01095142391530
H            1.16146741399184        2.53022977994576        0.49586692032859
H           -2.96952410277573        2.67876583817138       -0.48011026575472
H           -4.35882491185346        0.80302621012433       -0.11257434867512
H           -3.59850665639498       -2.60832709975649        0.36202240901958
H           -4.80249542797258       -1.37108945073182        0.35851437415369
