23
 energy: -44.051263523318 gnorm: 0.000772688050 xtb: 6.6.1 (8d0f1dd)
N           -3.66036894236164       -2.41847303737691       -0.86303079715571
C           -3.00773466512476       -1.50902914282611       -0.59861488282942
C           -2.29834348621359       -0.35480925928545       -0.27365204388823
C           -0.92644762611215       -0.16469549954510       -0.17596497000766
C           -0.71191820657276        1.26413102505644        0.22006108468767
C           -1.94910134824983        1.85150383219363        0.40264290711869
C           -2.92652943461454        0.89724413622037        0.06190867725551
N           -4.25085370319171        1.07489282610497        0.07881849044236
H           -4.86085475989343        0.31063733088216       -0.16020047435208
H           -4.64735473861803        1.95588490765585        0.35591460905773
H           -2.13848384982376        2.85259450208242        0.73670865225666
N            0.51621536581355        1.71343903203301        0.35624916587042
C            1.52858878198057        0.87917158866365        0.23057102595357
C            2.75316478328810        1.38734727041255       -0.24460054697689
C            3.91260577735072        0.66824176064355       -0.49510711849316
N            4.28128480202136       -0.50205134616745       -0.01742864751770
C            3.48646603992270       -1.37106834750955        0.56946854139557
N            2.20177607460369       -1.50255983628602        0.40471320629358
C            1.28666688482968       -0.59763585794261        0.16106447598771
N            0.06953354694406       -1.02495302282319       -0.15200284361339
H            3.97922297152113       -2.17570426631897        1.10379720550666
H            4.67352109410413        1.14616761838345       -1.10440807123860
H            2.71064555119562        2.41050354914956       -0.59890864285196
