26
 energy: -47.224993248541 gnorm: 0.000795223270 xtb: 6.6.1 (8d0f1dd)
N           -3.68229609841113       -2.68133380210902       -0.80196516119619
C           -3.11887269151072       -1.70977281063898       -0.54723417112721
C           -2.52638605513492       -0.49181336848590       -0.23290714688281
C           -1.18184810579387       -0.15453572293112       -0.16301001993861
C           -1.11088762291823        1.28410128473598        0.23005477073492
C           -2.40660440111821        1.74262539418595        0.42410153049930
C           -3.27762453309828        0.68952038009631        0.12070764212763
N           -4.61661291636856        0.71671369630107        0.16362477493118
H           -5.10465999176841        1.54625631991649        0.44969986853510
H           -5.13925070596178       -0.11522033526749       -0.05270953283919
H           -2.69458578369720        2.72685205462850        0.73724428124267
N            0.05189621363762        1.88630716882918        0.34102402805177
C            1.15750689330903        1.16005919271658        0.13745500372260
C            2.31005220442432        1.88480601561226       -0.16061747457083
C            3.60711765252293        1.43441101642475       -0.40308077864086
C            4.12015085537882        0.17424534104538       -0.23254330855747
C            3.38485929183935       -0.97894833893229        0.16067109286087
N            4.07936164118891       -2.06835604640511        0.56780658851153
H            5.07731407702369       -2.11153390737500        0.46901735251992
H            3.56183175576796       -2.91939957607225        0.70666971066613
N            2.09075608717764       -1.15459610226575        0.08114801552787
C            1.07897458055785       -0.31597159665521       -0.00012875035247
N           -0.09553800747536       -0.90092674398290       -0.22774170777831
H            5.17428493453947        0.02426191117867       -0.42596675540854
H            4.30857370514239        2.19506078385920       -0.72333168439582
H            2.13449371864665        2.94706765079190       -0.28141388544270
