28
 energy: -45.854758720620 gnorm: 0.000528647921 xtb: 6.6.1 (8d0f1dd)
N            3.02329821739076        2.57514667559948       -0.36177777753851
C            2.51369185665148        1.31577740351528       -0.21012747660912
N            3.36502258689478        0.23723069780604       -0.22372517634951
C            2.62356031937450       -0.84378056941992       -0.11145237430207
N            3.16629266822330       -2.10899877548894       -0.07081840458712
H            2.67162103758490       -2.79811499744098       -0.62028408776741
H            4.15904372278708       -2.09504117276420       -0.26396431963877
C            1.22077205073112       -0.51880142283176       -0.00707670947677
C            1.18433010512743        0.92179984517627       -0.10747518229322
C           -0.04098221529568        1.57879866632368        0.08659814881576
C           -1.19793106657848        0.85478953232026        0.17154299105559
C           -2.41964882024400        1.55062174076451        0.56415959995075
N           -3.63943821034675        1.31902477883850        0.30610851942300
C           -4.14960488426275        0.25504619541580       -0.37567453094907
C           -3.63150656590891       -0.99341147558824       -0.43341969861658
C           -2.30682772133158       -1.38948937270317       -0.08346161076347
C           -1.19791916252655       -0.60294526089465        0.11632622589839
C            0.09669486682869       -1.26291700220134        0.23771190671145
N            0.18033792456346       -2.60838041408835        0.49216788091628
H            1.08793172272309       -2.92433913743880        0.79741396119554
H           -0.59591979381169       -3.03222626177025        0.97414988203246
H           -2.14672657645946       -2.45865990761284       -0.13919616491130
H           -4.26633082582999       -1.78283259536029       -0.81634101069156
H           -5.13880439377808        0.45052468264698       -0.77162038195936
H           -2.25458220384523        2.42916219230812        1.18724242169559
H           -0.07649675065121        2.65660255682722        0.16859936809552
H            2.44786048384724        3.33471253764082       -0.03749626224941
H            4.00905350454235        2.65599848112099       -0.17211905528710
