29
 energy: -45.579565680214 gnorm: 0.000411564615 xtb: 6.6.1 (8d0f1dd)
N            4.67555554480137        0.45933144806961       -0.42557367878686
C            3.32727736789711        0.34513247383194       -0.23234292575431
C            2.56545252477991        1.50279884997845       -0.31672365745106
C            1.21279735084108        1.66242617563598       -0.04739047005373
C            0.18641866175157        0.75031917347426        0.13998401603928
C           -1.13485096353504        1.29975673098374        0.29651191530445
N           -1.31810516900012        2.62902783472680        0.58910749308671
H           -0.64161135349769        3.09420872674158        1.17061068398646
H           -2.27542010610271        2.89699551611967        0.74807493743794
C           -2.23254969036655        0.50187686187642        0.03703334057599
C           -2.06608607835773       -0.89663563201754       -0.30451607352663
C           -3.34962127537632       -1.37336826146176       -0.51151200558438
N           -4.27336610908440       -0.40124489410581       -0.32638816870740
C           -3.63240205528844        0.70812911472309        0.00191039101310
H           -4.17880007163411        1.61647331728901        0.19060353906551
H           -3.65930087655984       -2.36815641582339       -0.77645319257658
C           -0.79292063700337       -1.47303432396101       -0.23660306346556
C            0.31738678704472       -0.70614164042164        0.03664647620158
C            1.56962660277194       -1.38718100985453        0.30345602912092
N            1.45280153008015       -2.68525211587416        0.69918960102124
H            2.27522819535562       -3.18143194096782        0.99491068903860
H            0.56280855948204       -3.02676859258087        1.01447055081438
C            2.85832614032252       -0.92126362764828        0.16104222092763
H            3.63812881611874       -1.65253464631525        0.34966734983730
H           -0.70681458268865       -2.53532293469575       -0.41804177909844
H            0.89704865232075        2.69788004345645       -0.08211342237295
H            3.10691693219504        2.40450807189834       -0.57567780761453
H            5.03089619255361        1.30105536224678       -0.84430218261648
H            5.22405652957882       -0.37412098522540       -0.54488270786258
