22
 energy: -35.530315292351 gnorm: 0.000453257523 xtb: 6.6.1 (8d0f1dd)
C           -3.66467222578478        0.00009693223463       -0.00077225047134
C           -3.05973371148806        1.24899762004207       -0.00148005673812
C           -1.71010040764921        1.55429792432214       -0.00160012781087
C           -0.57555468102356        0.73733072330373       -0.00109015901921
N            0.57186595079342        1.43311576343994       -0.00142113763558
C            1.69767260687569        0.75165133940922       -0.00101364601374
C            1.69762954054434       -0.75176309750837       -0.00022740104966
N            0.57178434713147       -1.43316326095080        0.00011768782883
C           -0.57559694066128       -0.73731262897594       -0.00027778617155
C           -1.71018885586717       -1.55421512450908        0.00016744307650
C           -3.05980508743402       -1.24883792538487       -0.00002990133197
H           -3.73111764830666       -2.09833025859452        0.00044948913637
H           -1.45369798879116       -2.60766630385069        0.00076843556697
C            3.02527180409634       -1.15717454547598        0.00001359120238
C            3.81251010991552       -0.00011659892589       -0.00056166097590
C            3.02533766315822        1.15698672774892       -0.00118151750570
H            3.38138544750053        2.16908107960162       -0.00169164840455
H            4.88966881792411       -0.00014720482425       -0.00053261131800
H            3.38126136269075       -2.16928936654178        0.00054284360858
H           -1.45354937121069        2.60773446091003       -0.00218689855082
H           -3.73099804576979        2.09852804083817       -0.00199795387862
H           -4.74795704354401        0.00012791609168       -0.00080324244400
