29
 energy: -55.207148362135 gnorm: 0.000675010139 xtb: 6.6.1 (8d0f1dd)
N           -1.46778544653231       -3.37218930222553        0.64444426954098
C           -1.44241539284809       -2.26279635052400        0.34116332256347
C           -1.58134540664132       -0.87486021766261        0.11880355598736
C           -2.93443986451857       -0.43306302447336        0.18236266263190
N           -3.42009487890766        0.75035811391547       -0.15983390038194
C           -2.77503367031048        1.89183487268339       -0.26520736196025
N           -3.54085229469423        2.92913887937325       -0.68012298782223
H           -3.13548580934610        3.82532856294273       -0.87876265692186
H           -4.47720105373512        2.73250145042934       -0.98587273344832
C           -1.44307258347789        2.18173027927308        0.11724999419695
C           -0.35516639233736        1.33748631978690        0.23217690714511
C            0.88668837439253        1.94729661337626        0.52507274901932
C            2.05154638450016        1.25194607641943        0.36029380866480
C            2.02114881943364       -0.13215913730332       -0.15768569396341
N            3.26029023387642       -0.54280388477010       -0.33486999189761
C            4.00953071511669        0.53021346828180        0.07539542121979
N            5.33911604276146        0.47293865375429        0.04216915991403
H            5.78032953896115       -0.37292612372115       -0.27072513287032
H            5.87688894552472        1.26059505606513        0.35496848068510
N            3.33852572512418        1.61234671538690        0.48954952900676
C            0.79406954462300       -0.78172742872298       -0.34495495009998
C            0.81860960437744       -2.07585602460714       -0.90253844018968
N            0.89994939088028       -3.07594068147244       -1.46100334672709
C           -0.40228301218131       -0.11177132482444       -0.03861013231339
H            0.90947237651292        2.99139912892832        0.79727451992852
H           -1.23315606897401        3.23591542755425        0.25536087499630
N           -3.88815863145313       -1.32068879996776        0.53650881223405
H           -3.66678540588841       -2.28769661129200        0.69956248507634
H           -4.84645239533808       -1.02547522450366        0.47730975338488
