27
 energy: -46.937681759176 gnorm: 0.000702909914 xtb: 6.6.1 (8d0f1dd)
N           -1.81454258552917       -3.23690879328838       -0.11399320876583
C           -1.76179017491286       -2.09071692489458       -0.04946635906886
C           -1.81170764541417       -0.67852690825566        0.03338063610695
C           -3.10025162669619       -0.10282603365784       -0.08806431727592
N           -4.13633757004125       -0.93572022562873       -0.37744249913180
H           -3.98942233392658       -1.93069025543431       -0.38785155058059
H           -5.07833655968136       -0.59170523482895       -0.32974184948336
C           -3.39556919525902        1.25063808376844        0.10951309845210
C           -2.50549996191336        2.29699258713932        0.30396041430330
N           -1.20721547099313        2.35751861873826        0.15820071387825
C           -0.31005478855480        1.39323928289238        0.04783245743028
C            1.00328595305016        1.81374449129621       -0.19772041765633
C            2.03849716530531        0.90314063442251       -0.14741044083225
C            1.70143908159517       -0.50918664045501        0.20157916245761
N            0.44816059544387       -0.93349341692874        0.31591379319961
C           -0.54479357130280       -0.07441584088641        0.18386278995718
C            2.87838705005814       -1.20389904254420        0.32331176719399
C            3.93816740368602       -0.29396110595226        0.04152732732285
N            5.24277266689482       -0.61980588352345        0.06272634613800
H            5.94255561495678        0.06270463001245       -0.16833550441483
H            5.52548840541194       -1.56367215819203        0.25479524300013
C            3.41858463887994        0.98504025166904       -0.23829915149630
H            3.99853127306539        1.85935468349009       -0.46667304641103
H            2.99362611529103       -2.23998825358991        0.57335198189397
H            1.17585201066374        2.86930268942980       -0.35189303280133
H           -2.94566102275618        3.26683126846859        0.52312597790980
H           -4.44683069762126        1.51109577313353        0.09491108027414
