22
 energy: -43.558243491446 gnorm: 0.000801481803 xtb: 6.6.1 (8d0f1dd)
N           -3.96666004396284       -1.66850062258453        0.41616834659450
C           -3.10575203388598       -0.71488937648219        0.02146076946720
N           -3.63109423115194        0.48823708321967       -0.20022717951416
C           -2.93618837245593        1.60359496535876       -0.28773770616257
C           -1.61600822221069        1.85767835413384        0.03155276111984
C           -0.59074231345181        0.92123128394694        0.28208639236690
N            0.60913619380590        1.38496367133691        0.57329036770402
C            1.67781985822877        0.72129186678245        0.26336746804150
N            2.95413065814194        0.86994879811086        0.57586253598010
C            3.54997914031978       -0.19929120440568        0.00829751049872
N            4.86862750131787       -0.37761953515493        0.05164619903568
H            5.26043056771439       -1.21508181585593       -0.33924539864488
H            5.44090508718734        0.30033744646342        0.52122099710238
N            2.73026187522874       -1.12946729687874       -0.54906159083152
C            1.52923098463798       -0.59988509157179       -0.44791329170558
N            0.34550667448212       -1.13339087736408       -0.57558317974339
C           -0.74542146792728       -0.48491394754235       -0.17991290478491
N           -1.88116748719731       -1.12525112004766       -0.27021811271575
H           -1.27672229262013        2.88330672582833       -0.03910060079963
H           -3.53498931259220        2.44683185369364       -0.61751787563453
H           -3.66094260063431       -2.62569599424299        0.41439518327241
H           -4.94601951667450       -1.44677466534343        0.45288933575354
