29
 energy: -45.574778209969 gnorm: 0.000775774750 xtb: 6.6.1 (8d0f1dd)
N            4.88243239830227       -0.00816220233380       -0.01940354799452
C            3.52551117279795       -0.00320176624565       -0.00436969318345
C            2.88542093017697        1.19411634924939       -0.35654361142290
C            1.54018368004273        1.49761916242583       -0.29684155785381
C            0.39793128450759        0.74184077352299       -0.03843512198677
C           -0.82617757453670        1.43790926317617        0.08665841659760
N           -0.88338685180473        2.81619390079238        0.14058220890686
H           -0.14161730833571        3.30292566284284        0.61522509930021
H           -1.80297006843114        3.17781170338762        0.33620204070741
C           -2.02453285977604        0.72097483374020        0.07261762882705
C           -2.02655189294332       -0.72001590211563       -0.06619269407162
C           -3.38116584438350       -1.07301595607724       -0.09143204090575
N           -4.16763203617950        0.00184760041780        0.01830609925390
C           -3.37674297870203        1.07625579943819        0.11663044620447
H           -3.81446091262021        2.05550339674170        0.20420248363356
H           -3.82122366008595       -2.05178993035381       -0.17235130837973
C           -0.83107853825109       -1.43894647550321       -0.09845640626493
N           -0.89016334583189       -2.81625928188035       -0.15942336990573
H           -0.15316991974524       -3.30173830913743       -0.64271028115003
H           -1.81204079453136       -3.17684228997695       -0.34587812253165
C            0.39707157531548       -0.74504796068853        0.01923762501441
C            1.53712995974596       -1.50350120594664        0.26992678681229
C            2.88379855441895       -1.20001385599544        0.33855322329166
H            3.54086382377448       -2.01419864988179        0.62019013021659
H            1.33187839623075       -2.54596635310963        0.48604844049608
H            1.33473945258739        2.53847247169114       -0.52071173791150
H            3.54510523771614        2.00600599419417       -0.63859845799675
H            5.39024387630673        0.84095630154743       -0.19080848287111
H            5.38893758203516       -0.80600831122171        0.32046133866814
