29
 energy: -60.775380448852 gnorm: 0.000937716141 xtb: 6.6.1 (8d0f1dd)
N           -1.10855268907925       -4.05241141661639       -0.55793579367385
C           -1.09134621765520       -2.92965901313206       -0.31610826677584
C           -1.24047729800235       -1.53049832090021       -0.17846208028058
C           -2.56367839812118       -1.06860960159453       -0.51286587669947
N           -3.11731157023000        0.00527655868559        0.00056491207274
C           -2.56008955652402        1.07726378035850        0.51415029345875
N           -3.34501228897843        1.84804217418836        1.27893528903152
H           -3.03644503152896        2.75355598802789        1.59210738431876
H           -4.30200051313274        1.57197010496633        1.41922959452307
C           -1.23528668168215        1.53461646033517        0.18002722904960
C           -1.08153907235604        2.93332977206611        0.31751130128419
N           -1.09371137969006        4.05584079571444        0.56051106271551
C           -0.13706314213537        0.72917394060979       -0.12315383027149
C            1.08044276474338        1.34766861514316       -0.51786159227154
C            1.10526932518088        2.63273558958093       -1.09842509844756
N            1.15700586793163        3.62229333652833       -1.67620768343282
C            2.27208052171081        0.66744343833786       -0.31795502253741
C            2.26981367048590       -0.67545644553887        0.31897418029600
N            3.53904568393150       -1.03581169528871        0.49907344888552
C            4.23605390150814       -0.00747083633252        0.00023426985660
N            3.54248794631191        1.02333735573769       -0.49841626020584
H            5.31044118019256       -0.00935136378754        0.00006920880801
C            1.07589040631501       -1.35149384040192        0.51923891779878
C            1.09639168821552       -2.63658199822775        1.09992412400185
N            1.14462369120410       -3.62622716843743        1.67785965300294
C           -0.13955940405802       -0.72879824813926        0.12465779278404
N           -3.35104584596185       -1.83668048747713       -1.27785111289188
H           -3.04553259704610       -2.74325987099949       -1.59092850994459
H           -4.30703530215103       -1.55730420860642       -1.41841474615505
