29
 energy: -45.574138456450 gnorm: 0.000662666998 xtb: 6.6.1 (8d0f1dd)
N            3.46428571850547        2.14485518404569        0.49132550029767
C            2.95354164350435        0.86822358090862        0.29686077876862
C            3.74349692942594       -0.29869907660305        0.10184732848516
C            2.92829811889385       -1.37096184518696       -0.15250883024545
C            1.57851183299702       -0.91622838389497       -0.11296489053158
C            1.61955023812677        0.50769629132398        0.16084096159385
C            0.42945714946089        1.24801029266607        0.11359096006585
C           -0.78159940701969        0.62222048489203       -0.02962601433508
C           -1.96452884874982        1.42145491946470       -0.31533572399289
N           -1.73373032474227        2.61807308253440       -0.91379779487976
H           -2.51294343611543        3.18023587599656       -1.20844053683438
H           -0.82583908863610        2.82091895233723       -1.29218162513631
C           -3.26433436619345        1.12849056778912        0.03604471070731
C           -3.70736504113733       -0.02839010018078        0.70368603165522
N           -3.17570973626314       -1.20628879691046        0.75100232164076
C           -1.98989482265078       -1.56785013575711        0.23333225943427
C           -0.85480898283586       -0.84212488581378       -0.04316097832037
C            0.37932618513880       -1.57202321794789       -0.26682285725524
N            0.35626657283963       -2.92363011993491       -0.50067056915715
H            1.24408310245723       -3.33278049473535       -0.73914382417026
H           -0.44075985843002       -3.31919991367372       -0.96864735127616
H           -1.92213049202244       -2.64949644162381        0.18088284223625
H           -4.67670408961126        0.03489542920757        1.19248834785084
H           -4.00531288472925        1.89862410433265       -0.14333230734882
H            0.48410301399998        2.32556703444530        0.19603475731918
H            3.25726501166518       -2.37989316983233       -0.32716353428215
H            4.81878998727534       -0.31539795594139        0.14757534682474
H            2.83775189490825        2.77760947952878        0.96622738078054
H            4.39701917183837        2.16023975816348        0.87712532150591
