30
 energy: -49.298725754186 gnorm: 0.000719092945 xtb: 6.6.1 (8d0f1dd)
N            3.88873617168528        1.86845241163025       -0.20159465191171
C            3.17599076296355        0.67953359041795       -0.16345789697055
N            3.81765891699030       -0.50969898323846       -0.13705310402929
C            2.89601906174036       -1.46441066373462       -0.03812952633644
C            1.59651892401012       -0.92295939414901        0.02239049905952
C            1.79255938822123        0.51059592410159       -0.05781690068637
C            0.68237804425122        1.34483443625954       -0.03695072976810
C           -0.59258216328139        0.82312469054343        0.03010957055923
C           -1.67998723745924        1.77180167822440        0.19772619583079
N           -2.86987520187554        1.74183865986361       -0.33962909740211
C           -3.51850454143500        0.66766542882240       -0.77517820413490
C           -3.29943943386103       -0.62728285987833       -0.41037479822545
C           -2.11849250827670       -1.18179774078818        0.16153147715136
N           -2.28265739539972       -2.45485852398996        0.64797388442411
H           -3.22960851229342       -2.74991102902832        0.82046490351191
H           -1.58040345677886       -2.80650565140337        1.27861734530170
C           -0.82311652092578       -0.62459154145229        0.08635210978345
C            0.32507667909375       -1.47524478514954        0.07914480448974
N            0.22668536702275       -2.85948027902316        0.06293798853646
H           -0.55628599960106       -3.24197524984785       -0.44762245188626
H            1.10531308697238       -3.29692094931273       -0.17554336000330
H           -4.09191029095084       -1.34130024604242       -0.59980556297753
H           -4.40774508551672        0.90663547173906       -1.34823020480818
N           -1.41424940197263        2.88927597938025        0.90471846087947
H           -0.52848894009657        3.02090760238029        1.35679193122516
H           -2.13849189431035        3.58056851072466        0.99220618549825
H            0.82221608736024        2.41508030223428       -0.11420054565760
H            3.20118876898112       -2.49545149780850        0.01117491327986
H            4.85107465176720        1.71905028764993       -0.46922675391631
H            3.44283802747520        2.60542163887510       -0.72857606841709
