28
 energy: -51.472063309231 gnorm: 0.000352469973 xtb: 6.6.1 (8d0f1dd)
N            3.59500637670036        2.85557967064428       -0.02911750258471
C            3.14677284281925        1.79571129206311       -0.02722661292476
C            2.71715863705291        0.47156613876903       -0.02585602976936
C            1.42287156785155       -0.04498550446970       -0.01880863613752
C            1.53681418451667       -1.52571856816703       -0.02051340795038
C            2.88216565089975       -1.84992966214855       -0.02853724997141
C            3.61652394355129       -0.64662116911687       -0.03187815306200
N            4.94958634868578       -0.52601929065367       -0.03940006958480
H            5.36547526974093        0.39047474507568       -0.04109559696613
H            5.54138369641211       -1.33787866813922       -0.04336557633772
H            3.30709826174076       -2.83602853332052       -0.03169147123732
C            0.35951854471504       -2.25292732312400       -0.01382001245703
C           -0.87178722715912       -1.59570124586387       -0.00611249116115
C           -2.03634482709194       -2.37764087850895        0.00176381855936
C           -3.37001224100970       -2.00970537126337        0.01046134004009
N           -3.96354721568172       -0.83405976612797        0.01211906863463
C           -3.39437436867553        0.36007744780530        0.00651358483506
N           -4.28408693727820        1.37625027275552        0.00799423973872
H           -5.26067229258314        1.14085856347873        0.01445404030523
H           -3.98730307029343        2.33638456115516        0.00634583200417
C           -2.00473253327899        0.69617743727709       -0.00031487183768
C           -1.72444880594322        2.08474240511308       -0.00203475742243
N           -1.60638179560331        3.22722550116776       -0.00259001219767
C           -0.86304986178470       -0.11932441170665       -0.00596709070618
N            0.26821030347154        0.58542368470271       -0.01185847075424
H           -4.09002094885537       -2.82354200411384        0.01678057410085
H           -1.85883991122269       -3.44738145981537        0.00136076772337
H            0.38202475070305       -3.33497180666795       -0.01426346967901
