21
 energy: -39.815174551708 gnorm: 0.000458677582 xtb: 6.6.1 (8d0f1dd)
N           -3.88398364542483       -1.55133258054689        0.07359307116074
C           -2.87426361778156       -0.65634537215418        0.04103955595319
N           -3.29824914420202        0.60551832215856        0.10011535073216
C           -2.55018542283299        1.68448499538689       -0.01089820246408
C           -1.18398901948547        1.87001247181218       -0.05280761913888
C           -0.14399454850846        0.92693872533600        0.07836066957822
N            1.08430094808552        1.41485884718089        0.14476910147601
C            2.12433529484031        0.65648192266369       -0.02345354429985
N            3.41905723700391        0.85883093055128        0.16036501176499
C            3.96513295262902       -0.35692370987497        0.04742936262688
N            3.13042991670597       -1.38897567680234       -0.07705252864112
C            1.92864487231523       -0.83277548013596       -0.15910652272977
N            0.73608271273184       -1.32062853073410       -0.01992028197956
C           -0.33760521406982       -0.52421241603618        0.01906668874471
C           -1.56822892040941       -1.16621442144981       -0.08878552724788
H           -1.49116599073568       -2.22681675340680       -0.29284634711054
H            5.02873874849108       -0.49880330021139        0.09853481951058
H           -0.83426457651893        2.88284859818071       -0.20036397751215
H           -3.15236552182287        2.58759624241423       -0.06646228157079
H           -4.81976270239043       -1.19931792914932        0.17425650547449
H           -3.71576355622044       -2.54018797058247        0.05912677617263
