27
 energy: -52.535420945859 gnorm: 0.000410087282 xtb: 6.6.1 (8d0f1dd)
N           -2.56282688351211       -2.97580399258503       -0.24763075074601
C           -2.39520937803234       -1.84583432703647       -0.14095909640612
C           -2.29702835341388       -0.43618211024193        0.00004420973621
C           -3.52827461635729        0.25371122346061        0.04796956028969
N           -4.66098875859718       -0.48494796566732        0.04538053442419
H           -5.56051223099051       -0.03906698321015        0.05465370541642
H           -4.61673520454103       -1.48954288527158        0.01030076155327
C           -3.68495380402367        1.65439178346344        0.08496485934414
C           -2.73337768985458        2.64452309409425        0.00212258762453
C           -1.35010481005935        2.54117925868948       -0.05126400678686
C           -0.52466968937610        1.42223520436658        0.04836550945338
N            0.78719196271157        1.71095286504954        0.02823232496096
C            1.65456907217593        0.74347258001123       -0.05458589609295
C            1.20932008849212       -0.67676771897589       -0.04206000542444
N           -0.06642030211460       -0.96330787311386        0.05286744182128
C           -0.96328174391660        0.02460760255270        0.06865564503999
C            2.36091018702898       -1.47062529825776        0.01497398800439
C            2.41400163617882       -2.86785069104077        0.05781962615365
N            2.47665883995930       -4.01355695128755        0.09362383214377
C            3.47469535125615       -0.60282791888259        0.00413099965456
C            3.06598202022487        0.73537718742478       -0.00948115429898
C            3.89455798362577        1.86163662308934       -0.00412116320352
N            4.57698371863482        2.78521779608077        0.00264132758803
H            4.49933402234488       -0.93049336282277        0.02907447462677
H           -0.79732878346246        3.46238687016983       -0.18643939575879
H           -3.11804568261899        3.65592293238538       -0.02675742422956
H           -4.71485642946570        1.98700549785638        0.13667109411216
