28
 energy: -56.258926750065 gnorm: 0.000896682398 xtb: 6.6.1 (8d0f1dd)
N           -5.36182338900876       -1.33508375919602        0.48260763505704
C           -4.25622168142859       -1.06206336598445        0.31827196147858
C           -2.89894063575277       -0.73457197414567        0.13276604552982
C           -2.02166873829791       -1.83628777077860       -0.04241509031686
C           -0.63330440876538       -1.78597248651476       -0.16674236442199
C            0.27572559691391       -0.74480860252936        0.00519846034261
N            1.56020730464151       -1.10095916220750       -0.01876626153442
C            2.52027620134171       -0.23667505250002       -0.10185072396824
C            2.19383388739734        1.22092272885784        0.03762251154063
N            3.30596632644670        1.90434733218072        0.22248813075501
C            4.32680292283460        1.04396869641155        0.16554927572165
C            3.92118015328479       -0.29437344041322        0.05089714609668
C            4.72264270428507       -1.43678130535617       -0.00087812264626
N            5.38213661420038       -2.37632038349355       -0.03393891142584
H            5.33753950270528        1.40327236423902        0.23426938125398
N            0.94857145863498        1.55963720275049        0.17603585433373
C           -0.04151424221943        0.68184341586927        0.08869725580034
C           -1.33117488616100        1.23685804392083       -0.07070158152082
C           -1.32135135515459        2.62750497167668       -0.33317710429670
N           -1.36505735616023        3.75373654737475       -0.55194404952764
C           -2.61281636856963        0.64775349112252        0.03176674768262
N           -3.66684844385448        1.49113384499531        0.02565376368907
H           -3.51841970718271        2.48546450313180       -0.02063474505170
H           -4.60608237340924        1.13745275522268        0.09300379711934
H           -0.15577804537125       -2.72746290167995       -0.40923336080629
N           -2.58595836925271       -3.06369363749092       -0.12274892287422
H           -2.00473407954620       -3.88041201345917       -0.18241872657424
H           -3.57684199724980       -3.18338280270471        0.00161763686474
