27
 energy: -42.149215235196 gnorm: 0.000561352215 xtb: 6.6.1 (8d0f1dd)
N           -1.80229451159016       -2.13208157625633        0.99108183486871
C           -1.83464708656470       -0.98822965490093        0.28188677051548
N           -3.02338000174478       -0.64022975239347       -0.14258494895001
C           -3.46866494758033        0.54371771708853       -0.51276067392649
C           -2.91027143911024        1.77228890107602       -0.22683527632372
C           -1.58873595621096        1.99209340049034        0.16475052039273
C           -0.50246108056057        1.12187088169375        0.18548811983343
C            0.77154024102748        1.71828760782223        0.34175938012619
C            1.91561064996458        0.99227006599023        0.16659941872392
C            1.84443330972414       -0.43067778437898       -0.14432746553513
C            3.14058115440654       -0.88148087394776       -0.30491252205330
C            4.01495507765755        0.21443051621923       -0.09902469614255
C            3.29078465911983        1.34549203958804        0.18117032826393
H            3.67814309276795        2.32782306427473        0.37816897424989
H            5.08782322236907        0.15287958637313       -0.16284004604184
H            3.46361521357722       -1.88166895255326       -0.53737310102474
C            0.58884199283768       -1.07026182058994       -0.17312311608770
N            0.55404185769871       -2.45869928183567       -0.34729528120457
H            1.42808233918064       -2.81583583714646       -0.70474829596873
H           -0.23735627262038       -2.80042766266309       -0.87425049504660
C           -0.56897569330650       -0.32784213828996        0.02090087417091
H            0.82500874329619        2.78348306678551        0.52186617845520
H           -1.33891843137239        3.02946166305380        0.35844548754538
H           -3.53259306068620        2.64539698835029       -0.36774092456648
H           -4.44273977464313        0.50696835837815       -0.98961046511698
H           -2.66951178871887       -2.59730763154778        1.19748231016947
H           -0.92358329531828       -2.52334578628032        1.28482074007362
