20
 energy: -40.096791355697 gnorm: 0.000860896751 xtb: 6.6.1 (8d0f1dd)
N           -3.59551776746610       -1.49039830961817       -0.53515938937656
C           -2.72246581285227       -0.64074145425426        0.02136275889984
N           -3.22583978275440        0.55004170621221        0.38756314693671
C           -2.46179856823554        1.59982802349332        0.55546188011211
N           -1.24469261278245        1.77618227942955        0.11014725445447
C           -0.26578056998675        0.92966984026745       -0.03589687208402
C            0.95260314040217        1.30116230945358       -0.62766717057823
C            2.02692459821216        0.45363652528955       -0.50752424950637
N            3.34157181021761        0.63364726267566       -0.68924736768612
C            3.91075575762635       -0.32374983332731        0.02909105100177
N            3.09496322976946       -1.11131251139498        0.75814033470058
C            1.88157634777573       -0.73143088459796        0.41019736066430
N            0.70207630012170       -1.14795975416447        0.78952669916179
C           -0.37448095442404       -0.50721150125702        0.43615243775886
N           -1.50849150515585       -1.13827634179356        0.23004953261431
H            4.97709463442614       -0.45268096439038        0.05844068422430
H            1.06936647994415        2.31276443110106       -0.98638674144537
H           -2.94791362759638        2.48409440778064        0.95270410540261
H           -4.55697928672064       -1.21488057031361       -0.62944686398571
H           -3.30564993132094       -2.43455774509145       -0.72115140746933
