29
 energy: -51.199126487610 gnorm: 0.000844922609 xtb: 6.6.1 (8d0f1dd)
N            3.81803717916431        2.43919044829912        0.02341129316777
C            3.22391080974151        1.45311752796996        0.01703390357307
C            2.61205338103101        0.20362754946895        0.00971162599629
C            3.35748541931766       -1.03316756607814        0.00506388819356
N            4.69929713485091       -1.08288849951412        0.00951319748692
H            5.22909651819600       -0.22806740380849        0.01347618359439
H            5.18190556467404       -1.96329574374429        0.00442088779041
C            2.46794670482320       -2.10958044108814       -0.00373632020908
C            1.16977313186093       -1.59740947260863       -0.00524335221234
C            1.26288283556738       -0.12939247303801        0.00391413706541
C            0.09132242555942        0.62932046622643        0.00292074321655
C            0.13749367316787        2.03980361458398        0.01086637299196
N            0.16295815018295        3.18699408974331        0.01966386401519
C           -1.17904477217137        0.01719267769725       -0.00768191267089
N           -2.17668471540944        0.88274198268719       -0.01631215666499
C           -3.48450716266435        0.74194337820017       -0.02141123079530
N           -4.14352312224586        1.92692338692505       -0.08269724207828
H           -3.58419291896602        2.76105259063178       -0.02871458775067
H           -5.13582520040406        1.98593778463793        0.05194693610939
C           -4.25827464775342       -0.44564152526034        0.00844888554044
C           -3.78124327969650       -1.73316110618081        0.01981566696166
C           -2.45867725090212       -2.17460638937946        0.00546424061652
C           -1.26026470845154       -1.46306520137950       -0.00773054369601
C           -0.06951891265492       -2.20253083294592       -0.01061814161784
H           -0.13182422838565       -3.28255036181610       -0.01389714031740
H           -2.34082408630542       -3.25285150317419        0.01123199861683
H           -4.52908627540950       -2.51649143047227        0.03991052641740
H           -5.33197364080854       -0.30957676227307        0.01946408780932
H            2.74143564069159       -3.14741296350962       -0.00848543205034
