29
 energy: -45.580257893673 gnorm: 0.000947884446 xtb: 6.6.1 (8d0f1dd)
N           -5.11033949076717       -0.26630254075477        0.04349021813012
C           -3.75639327361762       -0.13314523280755        0.02882836860243
C           -2.98103491284893       -1.26290636897313        0.15141578097659
C           -1.58335449581589       -1.39376758820236        0.08198269758882
C           -0.55899510836946       -0.48410782177398       -0.04143533297218
C           -0.72191537473010        0.98177526014377       -0.05573313650039
C           -1.98392412243265        1.63777892431489       -0.15039396605928
C           -3.26576347069503        1.20073898738140       -0.14001629029480
H           -4.03924294347483        1.95345730013653       -0.23746585820174
H           -1.88194464260534        2.71438042818147       -0.24348904550557
C            0.38044383930653        1.80777780014423       -0.00354978488457
C            1.67451269707048        1.28689996395317        0.07712894123672
C            1.85063702367543       -0.15376995866166        0.04813904713563
C            3.26729106958656       -0.33045485130557        0.08314747300505
N            3.89765535746103        0.83185481162477        0.10586139338910
C            2.95314134413062        1.81053443807084        0.09250418197869
H            3.25443705662708        2.84172388403339        0.10213925586226
N            3.94808699942877       -1.54909319079409        0.06063070592384
H            4.94648713011886       -1.37997897244559        0.09806831704685
H            3.66692482786085       -2.17407804970886        0.80736433947413
C            0.78691894185013       -1.01237696289884       -0.10051035242563
N            1.03513822392663       -2.35532811452285       -0.25554290235565
H            1.99405547820632       -2.55712281647428       -0.50093061822845
H            0.35423183685657       -2.90780675271989       -0.74975372116144
H            0.24797978297480        2.88068842141995       -0.03123625761376
H           -1.27347478712561       -2.42715769592978        0.18051648175186
H           -3.52248308466758       -2.19133260928129        0.29299592876841
H           -5.69382146008068        0.54971014215684        0.08316905221050
H           -5.52187810224983       -1.15277426500668        0.27494422912234
