24
 energy: -38.970824195849 gnorm: 0.000581879337 xtb: 6.6.1 (8d0f1dd)
N           -3.87025128205248       -1.65535796768157       -0.07534167268848
C           -2.89754822592963       -0.69267650230341       -0.01935196640594
C           -3.31005755925516        0.63926754682036       -0.00876006783021
C           -2.53413027523506        1.78978167561228       -0.01122304991132
C           -1.16233039151168        1.92427105789889       -0.00948562428487
C           -0.13850590730800        0.96425284507705       -0.00142128138582
N            1.08686133683875        1.49091098415507        0.01031876782940
C            2.11418213103028        0.65519201400182        0.00340242133227
C            1.89797689240187       -0.83106406355619       -0.01611582985844
N            0.69790727654720       -1.35121819398721       -0.01909704398035
C           -0.35270960606203       -0.49341801901937       -0.01446392927569
C           -1.56943219775725       -1.15035329421014       -0.02771943969814
H           -1.45210343884917       -2.22941570825969       -0.04740415198116
C            3.16479430741866       -1.42747678293945       -0.01139846224544
C            4.09776862270576       -0.40249165266850        0.00989733018066
C            3.47547085444154        0.86576266395520        0.02235317182095
H            3.97799686989837        1.81345502502597        0.04245124736617
H            5.16546393002886       -0.54719972546229        0.01898173122765
H            3.36692359613994       -2.48096472409883       -0.02456900251653
H           -0.77310823917616        2.93540563068367       -0.01293193196635
H           -3.09223683243190        2.71787730376831       -0.01106962055146
H           -4.38339972544785        0.79174679552754       -0.00511963958366
H           -3.61602457073154       -2.61244958915273        0.09273502447492
H           -4.82357826950326       -1.39752170078688        0.10905748443180
