28
 energy: -51.455686031089 gnorm: 0.000689084948 xtb: 6.6.1 (8d0f1dd)
N           -2.12233358970988       -2.84616633956561       -0.87790929892097
C           -1.97327688822151       -1.78219872249757       -0.46981097963383
C           -1.89776605254594       -0.42518212394699       -0.07372745349575
C           -3.14155667309974        0.26188505833828       -0.13269749443205
C           -3.35650308769129        1.56107173466305        0.34977212965593
C           -2.38854824149430        2.48009233105327        0.71132949127041
N           -1.11466658029167        2.48656705433171        0.41729977646980
C           -0.29297809907363        1.52644705489670        0.08192180357473
N            0.90914045358744        1.93283682354838       -0.31693697007964
C            1.90874629469764        1.07721116556771       -0.30356952103474
C            1.76864118612604       -0.32403144016613        0.20815441559823
C            3.01658701733042       -0.87926285570670        0.25184038032713
C            3.93448641903846        0.09861519053300       -0.25022731453941
N            5.25369162901468       -0.10073531120545       -0.36824734969441
H            5.84926156761178        0.62668790893841       -0.72278583297585
H            5.66315126159918       -0.97360083374105       -0.08488199492913
C            3.24743336696494        1.27879319908107       -0.59149094464776
H            3.68697316473540        2.17738884238771       -0.97496284474407
H            3.27946318843730       -1.86636061123666        0.58192170779713
C            0.46645969045643       -0.80163525974138        0.43222587130759
C            0.29945666048040       -2.13054014590934        0.86968980142789
N            0.24148334412294       -3.18695171244360        1.31764589908506
C           -0.61247018376286        0.06950623927452        0.21983045876059
H           -2.72122600400304        3.39235481095971        1.19703553234611
H           -4.38980829070238        1.87285183823520        0.43407680449264
N           -4.22185684811304       -0.41783208869138       -0.59190034797731
H           -4.15061497665653       -1.39191663646669       -0.83193632367666
H           -5.13193915743711        0.00296501560935       -0.54332305873163
