28
 energy: -52.262568079067 gnorm: 0.000826199934 xtb: 6.6.1 (8d0f1dd)
N            3.24263358678371        2.87344775495659        0.00482270384136
C            2.81394810507622        1.80879307628008        0.00216286348072
C            2.41029573262457        0.44464316853706        0.00195203562417
C            3.46079249619023       -0.49503730070110        0.00218333956899
C            3.29752987799641       -1.89499793415613        0.00091721826648
C            2.14415500061534       -2.63800386839194       -0.00069748044204
C            0.81096390922948       -2.22343189203227       -0.00146646034165
C            0.25270187502554       -0.95546423878099       -0.00092723720818
C            1.00420439377929        0.30995082580730        0.00063156298623
N            0.40793988126194        1.49812612393515        0.00076707210948
C           -0.90678032634094        1.57928817044396       -0.00026820801615
C           -1.78127583660309        0.37643385781210       -0.00169497368324
C           -3.10699126954123        0.84115153940870       -0.00234529557350
C           -4.27162174519819        0.06999033678134       -0.00322427190280
N           -5.24250254400106       -0.54491688124104       -0.00541946204714
C           -3.05310816708164        2.25162700896208       -0.00160409890165
C           -1.73193098812731        2.69735601487345       -0.00031580105808
H           -1.40413138718905        3.71777755417702        0.00058312636012
H           -3.92393067452101        2.88359938883564       -0.00186773914554
C           -1.17428080436607       -0.86405539413173       -0.00211012538762
C           -1.96150901401960       -2.03970427168807       -0.00319452148254
N           -2.59480200198350       -2.99594039516038       -0.00416208894677
H            0.09003478101064       -3.03405358277585       -0.00284422862687
H            2.28270220564049       -3.71139715358320       -0.00155657994340
H            4.22523472448319       -2.45518911019309        0.00126073799593
N            4.73258869770998       -0.02697525573782        0.00403819921131
H            4.91173363766465        0.96255459864106        0.00401826242166
H            5.50951055568101       -0.66223178567789        0.00284900324071
