27
 energy: -42.147637780781 gnorm: 0.000949437470 xtb: 6.6.1 (8d0f1dd)
N           -4.92556175741260       -0.21745525444757        0.00317105060397
C           -3.57585792636405       -0.14715077192747       -0.00249857797410
N           -3.11896126979429        1.09055276926427       -0.01147009872669
C           -1.84325214881917        1.46685739717616       -0.01732206086525
C           -0.62817080696565        0.80052406355844       -0.01039579594093
C            0.52787584659495        1.61807552245598       -0.00789434696471
C            1.78448646247465        1.08540939486125       -0.00162238310461
C            1.96009330266242       -0.37406283293664       -0.00021765335226
C            3.33446148407030       -0.61993335712172        0.00154029944502
N            3.96163036305091       -1.85362547039995        0.07262642882862
H            3.41255151747195       -2.62842800386324       -0.26748622354190
H            4.91291489049110       -1.86271503821712       -0.26379369491462
C            3.99690483326666        0.63050644874815        0.00619010958225
C            3.07513429256032        1.65745148824382        0.00255272748847
H            3.29439011970949        2.70894333827904        0.00194500262825
H            5.06745478022242        0.74597244962011        0.00983860075230
C            0.83924593790532       -1.18709370508989       -0.00437170064706
C           -0.44836576220429       -0.66068408420255       -0.00819231685375
C           -1.51816470221635       -1.57699943184221       -0.00980611439974
C           -2.87152523193358       -1.38508411859095       -0.00760063314102
H           -3.49720063621521       -2.26899249870978       -0.00645222221756
H           -1.20647773399964       -2.61705531327365       -0.01019455353724
H            0.95612942224308       -2.26404576042762        0.00124026523871
H            0.39506237768095        2.69219496517439       -0.01020658164496
H           -1.77113742502046        2.55354502094867       -0.02624402236070
H           -5.44103957568760        0.64494841808528        0.02737422852075
H           -5.41087065017159       -1.09503825766516        0.04498494929874
