30
 energy: -54.913377577055 gnorm: 0.000964219237 xtb: 6.6.1 (8d0f1dd)
N            5.48206493584743        0.32974366378516        0.04913459889969
C            4.33140884608020        0.34143955240034        0.01734647727915
C            2.92262335371242        0.36229098440225       -0.00742517519517
C            2.33118165011939        1.65502731874772       -0.02456131062783
C            0.97762631925676        1.96159186098140       -0.02075374774629
C           -0.18459864006661        1.18144482571824       -0.00419341533364
C           -1.40701042760495        1.85585068693847        0.00327695379935
C           -2.59252111980560        1.14266630235405        0.01864675743551
C           -2.50135139135732       -0.34664660034123        0.02603619092284
N           -3.70501927153191       -0.89922153008600        0.04427608539805
C           -4.57443761128406        0.13973711806022        0.04818344831675
N           -5.89024139687538       -0.09912056631320        0.06668245017271
H           -6.55793875112122        0.65024018413810        0.06667095588096
H           -6.19868458781830       -1.05556308450294        0.07470007231348
C           -3.94387885290335        1.41273355943862        0.03311537018379
H           -4.44106957251257        2.36276152740514        0.03350642367145
N           -1.35472603366686       -0.98631603674848        0.01595058194832
C           -0.21535655074480       -0.29010319054368        0.00187659989602
C            0.89967603461341       -1.13966678622862       -0.00831790407750
C            0.53096827653275       -2.51237692847817       -0.01054894692943
N            0.35009519348828       -3.64651830095392       -0.01549530102557
C            2.29824663167727       -0.89812114365181       -0.00890704221875
N            3.10178453842209       -1.98919791231877       -0.00590049879810
H            2.69787453993624       -2.91017643628944       -0.00314467769602
H            4.10181502128951       -1.88815516840603       -0.00720166156237
H           -1.41679596451556        2.93874060701495       -0.00291520935860
H            0.77816522554532        3.02946501051187       -0.03316290948878
N            3.19224436651825        2.71422629282759       -0.08409597677929
H            2.83599552174888        3.64414104008502        0.04261108049231
H            4.17921961282025        2.56796123265308        0.03875825652697
