31
 energy: -59.440877132161 gnorm: 0.000360876694 xtb: 6.6.1 (8d0f1dd)
N            5.97315967541326        0.50601478767145       -0.31366436826619
C            4.85162647663497        0.27796503784552       -0.18984621430628
C            3.48461360230912        0.00063589822877       -0.02634701794537
C            2.64409199868962        1.11593938167383        0.29000669518037
N            1.34297555744957        1.19642853915513        0.17814620294431
C            0.39088998424361        0.29024883044277        0.07063711882569
C            0.55333303998394       -1.17394071890206        0.20533988474477
N           -0.49602759334509       -1.99257097852974        0.36299186591823
C           -1.71188582036723       -1.50963796261340        0.24233772050224
C           -2.93174448813705       -2.16902475234742        0.36397455447446
C           -3.94539475355813       -1.24748791613346        0.09170311406668
N           -5.26480117784521       -1.46725496401390        0.09190629887691
H           -5.63533043924010       -2.37458096066451        0.31319824398971
H           -5.89683167566264       -0.71130902630666       -0.11398886006707
C           -3.36393167276041        0.04952308553861       -0.19821008961112
C           -4.13158067121471        1.17310412738122       -0.48802949335642
N           -4.84455463121020        2.04598467386002       -0.72271276147555
C           -1.98992870155133       -0.09069945865831       -0.10669163896867
C           -0.90744975338780        0.78758638878454       -0.16737988251968
C           -1.07798468011364        2.17123403115939       -0.38458374022937
N           -1.20841139807706        3.29591777526861       -0.56890251149955
H           -3.06794050246718       -3.20271461012833        0.61168652188187
C            1.76672755648885       -1.82315639604015        0.05367900185959
C            3.07120758422664       -1.33640331207772       -0.16131994022930
N            4.01031277170179       -2.26007130760124       -0.47663185736252
H            3.76500762140679       -3.23169984029791       -0.53178819738041
H            4.97209053098904       -1.99121498079457       -0.59359446940920
H            1.66807094027837       -2.90266848779681        0.03229251063737
N            3.23799290507430        2.26728028574536        0.67477562805397
H            2.65052642777831        3.07944487424282        0.76012813341213
H            4.23634239417017        2.37732166270716        0.63052366305774
