27
 energy: -42.140778490671 gnorm: 0.000537858469 xtb: 6.6.1 (8d0f1dd)
N            3.11613486029357        2.34418259236515       -0.07698908862341
C            2.64635198164067        1.07576517285879       -0.00193728054372
N            3.41679446674186        0.02021304150176        0.00109620367454
C            2.58790892434878       -1.09229744164420        0.01149716742198
N            3.15340525766077       -2.33366198272298        0.07826855065416
H            2.59006570897292       -3.10522710239412       -0.23865701168601
H            4.13007305529082       -2.36723961725157       -0.16418301009701
C            1.24872633478557       -0.73807611842230        0.01879988323888
C            1.22813016609683        0.70026105106748        0.00402904490212
C            0.06888969721624        1.39341398558401       -0.00697681154120
C           -1.19757587743342        0.71448885967941       -0.00544628453625
C           -2.30366560567177        1.53455978761676       -0.03547138365796
C           -3.69565654282609        1.24063992129041       -0.04655123869176
C           -4.30896041577103        0.03832115753108       -0.01520458134883
C           -3.68533811440292       -1.25624194060916        0.03616283264918
C           -2.37766774858985       -1.56370214809959        0.05033427729094
C           -1.17708139168445       -0.74351371273376        0.02361989157594
C            0.01437592533014       -1.42008228188954        0.03292428882268
H            0.01333764222673       -2.50160775343563        0.05653225366811
H           -2.14730991514219       -2.62353708440327        0.08960978993127
H           -4.38169857731955       -2.08585796431991        0.06494544867119
H           -5.39134534347505        0.02587369211032       -0.02818007795373
H           -4.33465349752712        2.11551704633197       -0.08310659035430
H           -2.08750231635682        2.59707866271161       -0.05850747651303
H            0.06164356501965        2.47604975624418       -0.02368322309055
H            4.10192841384449        2.46533184589304        0.08552377430942
H            2.50706942583122        3.09174637984024        0.20716041622739
