26
 energy: -43.238330874881 gnorm: 0.000610519138 xtb: 6.6.1 (8d0f1dd)
N            3.84302833084991        2.51640574079796        0.00464004489292
C            3.18608967958701        1.56949607826135        0.00400050201873
C            2.43197939154165        0.40286707559339        0.00499763192253
C            1.03433058340695        0.27990187627009        0.00332137844164
C            0.72751000086469       -1.16561633552255        0.00562806511162
N           -0.51325971624994       -1.62779802022341        0.00485091688745
C           -1.53184711819810       -0.77563727390005        0.00194780677038
C           -2.77866692213904       -1.42870681099788        0.00150472942036
C           -4.07088570419087       -0.95025129856680       -0.00099199799284
C           -4.50830312281209        0.36980451332844       -0.00385156631950
C           -3.73632574235566        1.51928294388102       -0.00490194476809
C           -2.35594043404649        1.64018855411546       -0.00340842391903
C           -1.33690342699567        0.68465006959678       -0.00044145706509
C           -0.01409438823102        1.16587417079274        0.00034506711664
H            0.16498491331196        2.23349048376851       -0.00137507376965
H           -1.99320897273186        2.66354703931443       -0.00476244121850
H           -4.28315077848646        2.45422867761884       -0.00720112444387
H           -5.58122936152790        0.51604798465975       -0.00543979726846
H           -4.84961097039033       -1.70284873522602       -0.00064361221083
H           -2.66430188059243       -2.50619834034098        0.00356220013763
C            1.92520394024473       -1.85978404668860        0.00868894991550
C            2.97286358198974       -0.91767771212878        0.00842490737837
N            4.28856751428293       -1.19298003090148        0.00962822406062
H            4.95687330700979       -0.44217040702304        0.01309096171775
H            4.61302304720515       -2.14274315840347        0.01655964339836
H            2.04471798255341       -2.92554298587567        0.01088159028535
