28
 energy: -50.677285908516 gnorm: 0.000353625362 xtb: 6.6.1 (8d0f1dd)
N           -5.47014949215086       -0.00107134092571        0.40130366832559
C           -4.32904866126046       -0.02301361173402        0.24174272445464
C           -2.94083241518768       -0.03917044635058        0.04413677908196
C           -2.31023246766794        1.24077475457796       -0.16476860721073
N           -1.05539798035820        1.55864170051688       -0.07020472986858
C            0.06140730831501        0.82265997812705       -0.01918444244656
C            1.23215990946370        1.51230059465368        0.24714358030805
C            2.45103772910840        0.84442282711045        0.16951621817315
C            3.78101529090449        1.16205105909192        0.26702880688718
C            4.47866695955978       -0.04216136763595       -0.07352257051906
N            5.80853696691130       -0.19220677032929       -0.09959524634925
H            6.18406649827102       -1.08225541636723       -0.37551690357900
H            6.42143767639913        0.57708619816211        0.09929692941504
N            3.67139611856690       -1.06608256909942       -0.38722326209187
C            2.42856602963563       -0.58945480875816       -0.25231713243247
N            1.32788354658912       -1.26112513549266       -0.43969929272393
C            0.14681405462500       -0.63726048994299       -0.24916356321728
C           -0.92277781510250       -1.50401873783248       -0.18216612011439
C           -2.29890921071407       -1.28207312801814        0.05072361664214
N           -3.05125205743850       -2.39052755927015        0.25885417122611
H           -2.62905086532603       -3.30005073164754        0.22098144596631
H           -4.04617203636516       -2.31623027262675        0.38237300348336
H           -0.63054470696406       -2.54519384198797       -0.25855745050388
H            4.23697828015013        2.09691425106667        0.52835191070256
H            1.17774007599893        2.57006020097121        0.46000177860377
N           -3.13756517663216        2.28380416361158       -0.44367849575820
H           -4.13138431311788        2.19458690142572       -0.32085501936169
H           -2.72634872381423        3.20092873980421       -0.44281888439342
