25
 energy: -43.503138092456 gnorm: 0.000297662523 xtb: 6.6.1 (8d0f1dd)
N           -3.76518402055038       -2.56378646053212        0.00316494784288
C           -3.12988727695314       -1.60359337259018        0.00326304868262
C           -2.42641957071239       -0.40360498470027        0.00419978840357
C           -1.04136713325168       -0.20351368805562        0.00294168995019
C           -0.81283897215006        1.25270652404023        0.00472883381498
C           -2.04724854021109        1.88192927363028        0.00681746557217
C           -3.04590850513393        0.88693488771135        0.00658445780602
N           -4.37141004238418        1.08541994839473        0.00820537445912
H           -4.99536526414482        0.29633086340481        0.00806471567235
H           -4.75293879033364        2.01453861338264        0.00990443259054
H           -2.22839078766738        2.93998939584281        0.00838908424436
C            0.48909107582018        1.73416732610230        0.00393032568563
C            1.58208475590621        0.87623885550934        0.00164716479326
C            2.86479106757039        1.43862392903071       -0.00115130998810
C            4.10819907009342        0.81447585119980       -0.00475096126917
N            4.42947962489847       -0.46354686330376       -0.00408744717284
C            3.57481890232741       -1.47091164863882       -0.00058720503501
N            2.26587060443378       -1.55279945119892        0.00023768520766
C            1.34453746154577       -0.60059721549365        0.00062423176634
C            0.03000087342363       -1.07266532153893        0.00080563483962
H           -0.11908557346794       -2.14163951065788       -0.00016263838998
H            4.06312481846661       -2.44366038812676        0.00092176670155
H            4.97736902446425        1.46683911777219       -0.00821215625043
H            2.89199465010748        2.52315473830487       -0.00143120856599
H            0.65963136130300        2.80245645421087        0.00489224263869
