36
 energy: -55.600524360893 gnorm: 0.000876618844 xtb: 6.6.1 (8d0f1dd)
N            5.14614823117057        0.45430687633229       -0.56322274483022
C            3.79598274083832        0.41659742471025       -0.29089827977778
C            3.06429017685785        1.56897516297377       -0.46772451542037
C            1.72302501139439        1.79878447229297       -0.13003995215746
C            0.69043796915303        0.93148739134536        0.15038249789905
C           -0.61913851716713        1.51716268775967        0.30133687931344
N           -0.76203128205152        2.86195089198694        0.58180100603718
H           -1.69942667239181        3.10394683008441        0.87012109864729
H           -0.03802054789578        3.27453691781981        1.14863179803575
C           -1.72756734647524        0.74336066614857        0.05501600434772
C           -1.61078465443867       -0.68153860288283       -0.17831911150069
C           -2.89873610980079       -1.18384288709660       -0.31178626062873
N           -3.27671419604515       -2.52778159980319       -0.52296980216897
H           -2.91952727830741       -3.14701530347322        0.19607925782596
H           -4.28600216845332       -2.60837387507227       -0.56196452658473
C           -3.81078228228438       -0.10094704924157       -0.22125295573957
C           -3.11764092252978        1.06744406696452       -0.00567480200449
N           -3.65190332163173        2.36381066929470        0.15580543340877
H           -4.66216202328894        2.34353073256695        0.07486810600026
H           -3.27479105665705        3.01441203354871       -0.52563729711110
H           -4.88163484707738       -0.19507188337494       -0.30351992446611
C           -0.33773929857771       -1.29166557689604       -0.12076903485070
N           -0.27500492354064       -2.69329157153189       -0.31166792482899
H           -1.10558078144502       -3.00978639867054       -0.79618872896428
H            0.55434285058589       -2.97483814081642       -0.82044604866748
C            0.78844910410337       -0.53009727488660        0.13289401715940
C            2.02975119935317       -1.17988855333108        0.53438715258434
N            1.86577693186033       -2.31260367579270        1.27457245482277
H            0.95205467257626       -2.73189577992252        1.32080696891438
H            2.66696435919896       -2.87461018651118        1.50205286094855
C            3.31964401448676       -0.77932344174004        0.29917024525550
H            4.09537115661173       -1.46598692820277        0.62296426444111
H            1.44085787219385        2.84158389848605       -0.20894051397645
H            3.60363761561975        2.42389118738851       -0.85845484403298
H            5.47608928745634        1.20842928330372       -1.14183983763920
H            5.62457083029696       -0.42312880076200       -0.67693504999170
