28
 energy: -52.256958026410 gnorm: 0.000613214804 xtb: 6.6.1 (8d0f1dd)
N            3.51326030704713        2.83033622646582       -0.00236048301775
C            2.99704290134247        1.80393353420223       -0.00168058962079
C            2.45102244547412        0.49493171194383       -0.00164468069416
C            3.47063273081830       -0.53550198674781        0.00289479557782
C            3.22599212306452       -1.89318113569046       -0.00111630557685
C            1.98233203600048       -2.56044130076630       -0.00843576219657
N            0.77297652462060       -2.12186614990029       -0.00804731286033
C            0.29323763797992       -0.86131314141217       -0.00364077698674
C           -1.10142408963150       -0.81060084641651       -0.00042044869410
C           -1.81821796179931       -2.02990633796366       -0.00010694689233
N           -2.41872082115262       -3.00587546723116        0.00107004989526
C           -1.79370638795157        0.41517813544391        0.00059953253669
C           -1.02028803808258        1.65052026774395       -0.00293686202399
C           -1.95842879259910        2.74352690890220       -0.00257239927922
C           -3.20709889854845        2.21965756074576        0.00083789089854
C           -3.13260309528693        0.76629570748951        0.00269172707223
C           -4.25106953870730       -0.06640616370949        0.00683354160977
N           -5.20675823601834       -0.70567801465095        0.00983192054924
H           -4.13693411837739        2.75897756135298        0.00204854250094
H           -1.68687528529802        3.78156924584511       -0.00473354357786
C            0.33595863430739        1.62536857978069       -0.00585164491559
C            1.06531699087471        0.39210664817987       -0.00426344538475
H            0.88914159078073        2.55401633230121       -0.00862077651791
H            2.03933093345934       -3.64553342362691       -0.01395905428073
H            4.09945317489221       -2.53278332328512        0.00126762962583
N            4.75961058912335       -0.11856371545542        0.01091287762808
H            4.99984407712067        0.85734397092040        0.01104783905806
H            5.49975429084713       -0.79700444276074        0.01184414546679
