29
 energy: -51.197112253711 gnorm: 0.000668445903 xtb: 6.6.1 (8d0f1dd)
N            4.40390518724787        2.60564061765379        0.04306294977635
C            3.74682174390059        1.65885985269199        0.03462130273237
C            2.97660411242324        0.50316442490134        0.02494426112493
C            1.57073566307244        0.41206337989109        0.02303364844859
C            1.23151004178429       -1.02563388204614        0.01050079251561
N           -0.02595432294220       -1.45395776262422        0.00682999471683
C           -1.01540043548913       -0.58049690541777        0.01185941631492
C           -2.29474375985855       -1.19581287532430        0.01127688173529
C           -2.25213950779887       -2.61509053657056        0.00969756343417
N           -2.30006930779791       -3.76083290429338        0.00822544735977
C           -3.57511652924032       -0.65532678574080        0.01053288741887
C           -3.97226576731548        0.66604267482033        0.00368021913429
C           -3.17442228763857        1.81496011724770        0.00261749969233
N           -3.81997305687188        3.01834374139112        0.03658065589060
H           -3.30203946973990        3.86545661847078       -0.11508417272097
H           -4.81194975500952        3.05087132219069       -0.11725213044924
C           -1.77156792029891        1.86071985216817        0.01333431628717
C           -0.79425646743571        0.87758778927246        0.01878858377836
C            0.54912529405610        1.32198345419389        0.02672878486634
H            0.75486618263902        2.38480099750576        0.03440361812477
H           -1.37327421890807        2.87210820185247        0.01833555061319
H           -5.04119967729805        0.84154651231414        0.00028651925051
H           -4.37544881389079       -1.38640565032759        0.01077601666319
C            2.40490921374522       -1.74692910212694        0.00442905172015
C            3.48192878504287       -0.82396264219703        0.01320427004017
N            4.78490406330121       -1.14634291594069        0.00945400170026
H            5.07113456248654       -2.10872225591590        0.00245838043906
H            5.48321871971438       -0.42308774325459        0.01806710045946
H            2.49893970762002       -2.81481093608587       -0.00519654986730
