32
 energy: -59.163002547010 gnorm: 0.000738581317 xtb: 6.6.1 (8d0f1dd)
N            6.08773230550863        0.30216153866295       -0.00038582254720
C            4.94543464866447        0.16252525921179       -0.00066213693917
C            3.54739646656470       -0.01188995675989       -0.00093863949243
C            3.09129394072638       -1.35176154592010       -0.00159345287866
C            1.76467427053483       -1.78301248730773       -0.00067702021470
C            0.53669832851120       -1.12532584008599        0.00061662195626
N           -0.49380378372291       -1.97601143781074        0.00142904765691
C           -1.72765500922076       -1.51105389161737        0.00241094532667
C           -2.92569672758767       -2.20829961519443        0.00333239312117
C           -3.97009915026231       -1.26864341087263        0.00422660056995
N           -5.28358211321930       -1.53030596637179        0.00532942166446
H           -5.94332393966235       -0.77051888606412        0.00591774866882
H           -5.61868060398976       -2.47713003058930        0.00548365975244
C           -3.42736325886069        0.06325408292542        0.00407382504184
C           -4.21702789302965        1.20838853879144        0.00589915642539
N           -4.94518777765088        2.10032111808983        0.00380190326281
C           -2.04107598454761       -0.06176657787317        0.00269139131647
C           -0.97736717079947        0.83061582071756        0.00192931668568
C           -1.22516243806978        2.21848762755914        0.00162956369717
N           -1.41481356692417        3.35156599485195        0.00356313679795
C            0.35827856910028        0.33380282007710        0.00097106827720
C            1.37892387348295        1.27071917699658        0.00038453351034
C            2.77679470412791        1.17151213268476       -0.00023648142727
N            3.44990882277260        2.35077792973634        0.00020730191793
H            4.45452871008734        2.37108667826141       -0.00097503401098
H            2.94580386969952        3.21876755026950        0.00013916457586
H            1.02965066627643        2.29941601306039        0.00071483432908
H           -3.04028851634133       -3.27399191908417        0.00341028714764
H            1.63831803077144       -2.85996136955544       -0.00107207277596
N            4.03786976127813       -2.32644082367294       -0.00506419126067
H            3.76268939567155       -3.29109637354987        0.00106515486917
H            5.01598214141019       -2.09686609796672        0.00037246107580
