31
 energy: -54.639706337892 gnorm: 0.000561643957 xtb: 6.6.1 (8d0f1dd)
N           -5.92185832682628       -0.54613961939124        0.12771663558000
C           -4.78568045549426       -0.37216152149629        0.06101033372440
C           -3.39541455773773       -0.15816554843416        0.00278494639337
C           -2.59181504367423       -1.32182230038052       -0.02621314088448
N           -3.23688451832517       -2.51997504662504       -0.05692574711886
H           -4.23704448337276       -2.56710374540186        0.02800782371354
H           -2.70593963495349       -3.36899101656966        0.00636623177327
C           -1.19796322984743       -1.37482176191799       -0.03971263481521
C           -0.20061252626009       -0.40407647697226       -0.03183721458568
N            1.02467252022221       -0.93365671641455       -0.02654958541597
C            2.07403705842361       -0.13812697364161       -0.02534960126465
C            1.97272859421361        1.33993975582031       -0.03587638021270
C            3.26452491591816        1.85786275948954       -0.03424360906112
C            4.15901434913763        0.78210980538615       -0.02197919804657
N            5.50085959893256        0.84737421492106       -0.01462441659534
H            6.04015562004128       -0.00122442835053       -0.00854362545666
H            5.97396953129333        1.73282519505767       -0.02412146604230
C            3.43006660151395       -0.45991868204810       -0.01550297811008
C            4.03586899672145       -1.70963023709015       -0.00164947077649
N            4.60277423952300       -2.71281028999309        0.00982961131738
H            3.53776492403095        2.89651541669180       -0.04057101315408
C            0.70820823302272        1.88558009716462       -0.04014532629147
C           -0.42364030782060        1.05273650893078       -0.03428390921649
C           -1.66878269347690        1.67373113030238       -0.03444103032036
C           -2.97936266084389        1.19334132944748       -0.01536008505098
N           -3.96382561244381        2.13873155484196       -0.04505824058200
H           -4.92518500770538        1.86976581478794        0.07085361973345
H           -3.72528870958326        3.10673244410374        0.06787946004887
H           -1.61359929930041        2.75912600213913       -0.04699281551825
H            0.57323474893964        2.95984938240894       -0.04546317554607
H           -0.78123779796845       -2.37579960336636       -0.05172268941838
