22
 energy: -39.530495490227 gnorm: 0.000548803486 xtb: 6.6.1 (8d0f1dd)
N           -3.66328328689421       -1.71297723079392       -0.26100138399728
C           -2.78982582449784       -0.69835317773436       -0.06748009307787
N           -1.55423305948115       -1.09721278068292        0.13393993168201
C           -0.39576726008159       -0.47220991217558        0.08227389564024
N            0.66709569138497       -1.22356322386038        0.29771757364867
C            1.88107712142933       -0.73894721955006        0.32985424525757
N            3.03995929927636       -1.35247098512375        0.33766932887627
C            3.98600473179175       -0.42684675383505        0.05398063538408
C            3.46627864198778        0.81289909697454       -0.27106246076650
C            2.08984804985891        0.70383079054393       -0.03540763229778
N            1.04445164726586        1.42813664189485       -0.29821067838960
C           -0.18720326284405        0.98531999116734       -0.14076158918104
C           -1.19858148375704        1.94128336676081        0.05702198993120
C           -2.57120656160847        1.77530924008518        0.12709447646328
C           -3.31017104649167        0.61851715414912        0.00268337281228
H           -4.38746919749311        0.70190336398176        0.04753320465129
H           -3.13853552817544        2.68496227333170        0.28169194302219
H           -0.82113363170429        2.94059305137487        0.23262336117239
H            4.00005304222785        1.69991716842416       -0.54752051127782
H            5.02035583908070       -0.71990550933661        0.06530720624739
H           -4.65445720594253       -1.55588395032264       -0.25504739389115
H           -3.30807225163213       -2.65120978517307       -0.19279124930979
