32
 energy: -59.147431992805 gnorm: 0.000581770853 xtb: 6.6.1 (8d0f1dd)
N            5.42766248322463        0.16214111500083       -0.01566656667557
C            4.27826241382884        0.10683355442689       -0.01030050804382
C            2.86926458204999        0.04581574082885       -0.00386302824018
C            2.22088483238193        1.29923390156654        0.04507132163978
N            3.00731450455348        2.40015365389780        0.12709951874594
H            2.58803405045721        3.31426774961070        0.12273043123343
H            4.00889826280448        2.31676433186299        0.11654331264187
C            0.82695053222961        1.51222051822378        0.00396606580702
C            0.42293259239666        2.87363303315547        0.00269811328050
N            0.20447074569924        4.00171566119681        0.00674550800969
C           -0.27733729090418        0.63798323541733       -0.03436690203289
N           -1.41494220027613        1.31407480944552       -0.09501647636349
C           -2.57341708059185        0.67003409474689       -0.07929918507166
C           -2.64659567273391       -0.81419814170479        0.02816257277966
C           -3.98045802338963       -1.16401940236563        0.04066241599813
C           -4.72993080119085        0.03393339955761       -0.05975084947952
N           -6.06806839995568        0.10799226144726       -0.08485583726021
H           -6.62736158457249       -0.72431034614773       -0.01843480616178
H           -6.52570211640514        0.99990788510273       -0.15399611378691
C           -3.85646775665849        1.15553032161275       -0.13572369174634
H           -4.15625296057591        2.18104290432037       -0.21777957814739
H           -4.39166883186914       -2.15319684477012        0.10940615915796
C           -1.45153220142896       -1.51337475554579        0.06636801022692
C           -0.23004086253827       -0.83955249721957        0.01500956231584
C            0.95371857211707       -1.61597129459034        0.00297756209098
C            0.75301537883640       -3.01732552468064        0.03042608167757
N            0.65336762755485       -4.16305807917242        0.05448430479057
C            2.32272846799925       -1.25866458453560       -0.04361252945253
N            3.22015230007145       -2.27603778021066       -0.12167656477090
H            4.20660093767941       -2.08378550007137       -0.11618521061620
H            2.90995696655466       -3.23189325015722       -0.11844755971484
H           -1.46730378294804       -2.59318917845008        0.12110914726831
