24
 energy: -38.989569168498 gnorm: 0.000558174425 xtb: 6.6.1 (8d0f1dd)
N           -3.93094733390501       -1.65989276802902       -0.07136286459911
C           -2.95785150340542       -0.69590323875111       -0.01952027457733
C           -3.38122945406641        0.63636609884592       -0.01611804226572
C           -2.60602090714433        1.77917209815751       -0.01543526469088
C           -1.22820409993036        1.90886661283697       -0.00706095017594
C           -0.19610380927411        0.96368307181495       -0.00387755864114
C            1.10669686845788        1.47722830438866        0.01596293114641
C            2.19531227936216        0.63408103528580        0.01471184925606
N            3.51445813804940        0.86537933293076        0.03273172303370
C            4.04532677111894       -0.36498593636950        0.01593429475403
N            3.20987116021144       -1.40278658610259       -0.01031455897507
C            1.99482911255982       -0.82402581940344       -0.01256161010491
C            0.72659049348017       -1.34539740438988       -0.03088132624784
C           -0.39929881199702       -0.49876718398572       -0.02319313266587
C           -1.63103801443613       -1.14414513940294       -0.02835709172178
H           -1.54942654826875       -2.22739653422523       -0.04111564909369
H            0.58855220192550       -2.41663050888422       -0.04917915484383
H            5.11165182389687       -0.50814708994914        0.02576046082817
H            1.25883497929153        2.54643122712489        0.03228054258055
H           -0.87681968689397        2.93470485394121       -0.00007060098402
H           -3.15786077650866        2.71083171176987       -0.01573215273714
H           -4.45475037917734        0.78431062788271       -0.01699747194038
H           -3.68095763244482       -2.61645533806091        0.10686429118939
H           -4.88294290480134       -1.39982641182555        0.11662602057633
