29
 energy: -55.994660820474 gnorm: 0.000536274234 xtb: 6.6.1 (8d0f1dd)
N           -2.13455378315539       -3.60838554488573       -0.00264746017732
C           -2.04754821770099       -2.46193938416949       -0.00020386293354
C           -2.03289512138716       -1.04903572965259       -0.00111933649905
C           -3.33549669923801       -0.47341356381178       -0.00106645393460
N           -3.70064460561042        0.80391769252393       -0.00165375537695
C           -2.95104233819545        1.88280886023066       -0.00186377857489
N           -3.64331012306370        3.03941996230606       -0.00280484127256
H           -4.64735962394066        2.99842481765554       -0.00324631742632
H           -3.17781536460748        3.92854922343500       -0.00288779500666
C           -1.53267689588738        1.99427795334236       -0.00108087926524
C           -0.55389755374852        1.02937036430237       -0.00051077177435
N            0.68744988598645        1.57547093729072        0.00009770270367
C            1.72338830097921        0.79396116633668        0.00017704383467
C            1.63391020615281       -0.67881801066418       -0.00032484778621
C            2.94370121028944       -1.16973764262664       -0.00012906584362
C            3.32426259962014       -2.51228007979982       -0.00016929843710
N            3.62978202878655       -3.62069138932974       -0.00116202027311
C            3.82701388830152       -0.05630537585173        0.00043014068839
C            3.11042175656951        1.13331135020553        0.00078517084465
C            3.63121877483734        2.42922765209510        0.00177031152466
N            4.06028665938146        3.49515108238063        0.00127115503136
H            4.90023842013554       -0.13417167524743        0.00067790252525
C            0.37623452797903       -1.24886137606981       -0.00062648989788
C           -0.75908740694961       -0.43009212693758       -0.00075952594943
H            0.26780889244132       -2.32455526888589       -0.00074710432526
H           -1.13871923425866        3.00320193911690       -0.00089893893429
N           -4.39705925391668       -1.30770870301832       -0.00050842652490
H           -5.31358351987229       -0.89672489749722       -0.00091279459534
H           -4.28814318002784       -2.30685455397356       -0.00039848834402
