29
 energy: -55.980919463988 gnorm: 0.000697010481 xtb: 6.6.1 (8d0f1dd)
N           -4.00732390509937       -2.33178921325629       -0.71415118660696
C           -3.41114218666495       -1.38436473351432       -0.44783992366541
C           -2.78735003196576       -0.18802313028283       -0.10213066279826
C           -3.51311475100427        0.96830773382858        0.37529587850663
N           -4.83896125614133        0.98640481085862        0.52930093633246
H           -5.38091811191698        0.16938621828923        0.29900169719508
H           -5.30758426881672        1.81322667488756        0.85669125419311
C           -2.61784088898957        2.01959921865116        0.62670773601374
C           -1.34221266689729        1.57517357416633        0.31483826251729
N           -0.21766708017435        2.25792844299837        0.24840824467124
C            0.89058152340442        1.64204157467086       -0.14524855933646
N            1.85300158042047        2.43370217081228       -0.54755951208730
C            3.10195570794692        2.20243665699895       -0.84449292993344
C            3.91114015535645        1.15710554844047       -0.42965304754070
C            3.49241207557162       -0.06016074338968        0.12203044273164
N            4.44613048388281       -0.88820056714792        0.60678694210372
H            5.41270250042601       -0.62099815579137        0.55559053456810
H            4.21601387349358       -1.81809118546903        0.91423324367692
C            2.14665048268021       -0.53583099372353        0.10129312508547
C            2.00493633899399       -1.86676113674654        0.56800635242808
N            1.98489326009044       -2.91314572959879        1.04158110606491
C            0.96276957196487        0.15095106117259       -0.20519642296820
C           -0.25836074448232       -0.54234795304271       -0.35552348268173
C           -0.29503595203955       -1.89369910781443       -0.76180492817643
N           -0.35134080696913       -2.95861081833512       -1.18575858398228
C           -1.44419963638586        0.15310407521128       -0.11797935269226
H            4.98040353644491        1.29247605177753       -0.52944130714429
H            3.57450065701315        3.01640525402181       -1.38530375689509
H           -2.87820227734317        3.00028533122624        0.97063236042040
