23
 energy: -43.279183225075 gnorm: 0.000465893284 xtb: 6.6.1 (8d0f1dd)
N            3.95700109384929        1.65313381731968       -0.47401997266937
C            3.08459679543312        0.74354742508581        0.00088341471793
N            1.83589766584219        1.13809375498527        0.11073231959761
C            0.71552082687203        0.45578183679798        0.18249765271331
N           -0.35098487944133        1.17481781295995        0.49884661110206
C           -1.53373372110282        0.63498829826838        0.29069725885709
N           -2.72583482076621        1.16683353656514        0.49556335483174
C           -3.58133788129296        0.21673060194296        0.03564279465106
N           -4.89718172409470        0.40302213129032        0.07339754193357
H           -5.50750489084869       -0.31468958913508       -0.27399404485167
H           -5.25599253805563        1.26557212213995        0.44190986545291
N           -3.03879071397044       -0.92312201643284       -0.44964912200325
C           -1.72928985048636       -0.72461339831304       -0.30627039830577
C           -0.63041141592057       -1.52995092898944       -0.48556062301756
C            0.62423737115918       -1.00168941965654       -0.15505740298481
C            1.70304235804663       -1.86058785842280        0.04486528787769
C            2.98996491793895       -1.53892899592574        0.48536133635569
N            3.63184268407637       -0.40333904021713        0.43488856333419
H            3.59352838696522       -2.35463320117973        0.87350997315077
H            1.48115432587104       -2.91942893266056       -0.03596595607979
H           -0.72719690477118       -2.56204575593807       -0.79275554534282
H            4.94043777119586        1.47031153802470       -0.38031171383391
H            3.62868363950110        2.58990871439098       -0.63066913758668
