25
 energy: -42.706927644208 gnorm: 0.000600425367 xtb: 6.6.1 (8d0f1dd)
N            4.15411840544224        1.79417295688417       -0.06387948349304
C            3.23764725753079        0.78029150652969       -0.01355836064001
C            3.72706247102097       -0.52596383458019        0.01366526552547
C            3.01014191083716       -1.71366024938515        0.01298184943980
C            1.65067983133659       -1.92270371950176       -0.00209118765069
C            0.57109140609338       -1.01883035881345       -0.01587082171361
N           -0.61971022182080       -1.61610566778378       -0.01537674633589
C           -1.68996687529449       -0.82500251894535       -0.03394057511640
C           -1.55355714551319        0.66119290379855       -0.05493430538374
N           -2.75296253099844        1.24778234681856       -0.06461046070017
C           -3.63695928582797        0.23303308446792       -0.05064781306275
N           -4.95265808331544        0.48747012039784       -0.06747350938407
H           -5.62215546215415       -0.25671340910042        0.00201159829918
H           -5.25464205402790        1.44518953083834       -0.04430612623692
C           -3.04091381094878       -1.06258926614066       -0.02878070045870
H           -3.56295229398948       -1.99798526959993       -0.01315706487019
N           -0.38564193894234        1.24779241414247       -0.05182613951198
C            0.70496398828148        0.44229503359634       -0.03405719445099
C            1.88856186752630        1.16316154866028       -0.03766716472528
H            1.71009699667671        2.23328405332264       -0.06181900201499
H            1.31704647181515       -2.95340416594684       -0.00027392492477
H            3.61621912499588       -2.61170674427273        0.02927651563700
H            4.80660394676703       -0.62003986789013        0.03144064914000
H            5.12048259639545        1.59345959983260        0.12254743785724
H            3.84335935351391        2.73867540157101        0.07791613307554
