29
 energy: -55.991998185216 gnorm: 0.000759246686 xtb: 6.6.1 (8d0f1dd)
N           -3.98951557930970       -2.35492555813575       -0.63697307993086
C           -3.39839958555940       -1.39645247748431       -0.40119127475484
C           -2.80325437355294       -0.17715303486384       -0.08498525061817
C           -3.56104753725969        0.96153955524451        0.36698393902201
N           -4.88829508900109        0.95219597336777        0.52067804340997
H           -5.40780119495252        0.11466671713993        0.31403152970296
H           -5.37858110297085        1.77503557233908        0.82477897884299
C           -2.68771214482020        2.03941918873667        0.59935127277271
C           -1.39851109796500        1.61884944829839        0.31045400117606
C           -1.46635703213563        0.20439047968625       -0.11687377781950
C           -0.29318955974883       -0.49535784000808       -0.40739496323895
C           -0.36855503711233       -1.83542864907564       -0.83963656316708
N           -0.45819311481052       -2.89254577276946       -1.27739723385460
C            0.95176458102368        0.15740680941192       -0.27485801100015
C            0.96013812457172        1.64699347435782       -0.18872460042618
N            1.96495964647612        2.39233588619944       -0.61944752917106
C            3.18484973722157        2.05219088136445       -0.90779170235095
N            3.91120806947417        1.07282454966349       -0.40805721813342
C            3.44808881696916       -0.02378775991960        0.15559310160213
N            4.34878870934793       -0.73785548150881        0.85567742519016
H            4.13812493294531       -1.66464052048930        1.18590234880241
H            5.29817765711954       -0.40618406489981        0.86647506427415
C            2.11528066157118       -0.56365573842955       -0.00016831420457
C            2.02009891825017       -1.93086355277404        0.34507196186150
N            2.07599071140890       -3.01613956026845        0.71823691675791
H            3.73525565109750        2.75748458016360       -1.52191608477885
C           -0.19272574758522        2.29896264827971        0.23571466314489
H           -0.14918034648321        3.36656300851332        0.38510049738200
H           -2.98046311964850        3.01709714181545        0.92987076779213
