23
 energy: -39.249146737588 gnorm: 0.000571595952 xtb: 6.6.1 (8d0f1dd)
N            3.59293964778821        1.61713504402255        0.67780009598952
C            2.78350900981417        0.66596518154582        0.15023857975609
N            1.55401266764896        1.10678403008506       -0.14139701286145
C            0.43921829543668        0.46318570873935       -0.30048930027456
C           -0.70497578536262        1.24031270596625       -0.61632086568384
C           -1.93813507274761        0.73222917630691       -0.33429443191322
N           -3.14740794289318        1.34252811853563       -0.43495129812633
C           -4.02442148525163        0.45831879519549        0.00792294594103
C           -3.45546805509263       -0.77297175400870        0.41990950015238
C           -2.09850139041989       -0.63829826846467        0.21653331283104
C           -0.99047375652562       -1.47919306845333        0.30963720263961
C            0.26272965268017       -1.00784999986797       -0.03122125172731
N            1.23033878253678       -1.89301076877946       -0.26240074886067
C            2.50248051093086       -1.70830487754256       -0.46388166280788
C            3.29358172961580       -0.59287752657029       -0.17391552360486
H            4.36851405165529       -0.71724792475875       -0.18084730101412
H            3.01930925041725       -2.60230327045500       -0.80143745526975
H           -1.10196520590993       -2.51919808594388        0.57694974346754
H           -3.98910141002463       -1.61960250991466        0.80441088613028
H           -5.07198352261388        0.70881623547558        0.03016187775715
H           -0.57300718985848        2.25542910515252       -0.95555346520530
H            4.57871692874285        1.45618946717757        0.77061025765518
H            3.24104953573285        2.55590653665659        0.74113101533032
