30
 energy: -54.920447524395 gnorm: 0.000902879561 xtb: 6.6.1 (8d0f1dd)
N           -4.18087299241326       -2.48181688101124       -0.42854472744122
C           -3.59608916807846       -1.49863177727996       -0.29567651306476
C           -2.99742185529754       -0.25433009530562       -0.13636949247164
C           -1.65699470694128        0.08901705573307       -0.06517672775618
C           -1.58522365027147        1.56146958136477        0.08831134967695
C           -2.89254865934647        2.05558470758561        0.11863736663921
C           -3.75924506142506        0.97570131993068       -0.01598698550348
N           -5.10114845056593        1.00029648093281       -0.04076216157704
H           -5.61144188607101        0.13978065096886       -0.14446712954406
H           -5.60310860171234        1.86524108397183        0.04905077792459
H           -3.18163725346624        3.08429097612797        0.22403214619862
C           -0.33911249594676        2.13403743058477        0.13632680002340
C            0.81679731383479        1.32878946858041        0.05548516307248
C            2.04340426767920        1.96790465674237        0.02457933355289
C            3.35216435031384        1.45010909203708       -0.07609274126578
N            3.78110532670838        0.20290228568878       -0.01833717563661
C            3.06990872962874       -0.90917428803402        0.08486706352650
N            3.83448190911180       -2.01447026073687        0.23647431155742
H            3.42295303529300       -2.93094999724334        0.25627165111646
H            4.83198320315498       -1.90205530358798        0.22239337696087
C            1.66129768348367       -1.08410031569897        0.02275711753905
C            1.22460876702172       -2.42926050821999        0.01702273266816
N            0.97865200243312       -3.55197649000927        0.02065051035159
C            0.61918587985933       -0.13440747750403       -0.02038287373076
N           -0.58291387961556       -0.68353466935442       -0.10018347837386
N            4.35923099136747        2.35517186900705       -0.19090456256124
H            4.16900053534863        3.32383967124204       -0.36699617206620
H            5.28992591029582        2.00308676153983       -0.32637027439849
H            1.99746989058158        3.05182454451105        0.06069022901440
H           -0.22412825356478        3.20772756933672        0.21466191836869
