33
 energy: -63.676302897749 gnorm: 0.000550304871 xtb: 6.6.1 (8d0f1dd)
N           -5.78542164425772       -0.55642775293063       -0.03919191788887
C           -4.64286135248345       -0.42435893420039       -0.02594780215314
C           -3.24139027355960       -0.25418055300480       -0.00819750402116
C           -2.80863800290924        1.09038025466840        0.03315343995427
N           -3.76411087775940        2.04672862004420        0.08685773372716
H           -3.50102446941646        3.01768527684820        0.09409046722610
H           -4.73886613504585        1.80048062500161        0.07919370557399
C           -1.46695080908858        1.52747068000976        0.01323976885643
C           -1.28905800183869        2.93693495157358        0.02322413559819
N           -1.25358692495407        4.08499168415371        0.03400916254268
C           -0.23560856632774        0.84323114264226       -0.01732246809990
N            0.77882393565517        1.69758028551395       -0.05454142301545
C            2.02458504738607        1.25065121301163       -0.05243815077166
C            2.33172975741820       -0.19606788841708        0.00553920009553
C            3.72277597738772       -0.32204398083149        0.00376569343955
C            4.48999140201261       -1.48045970025654        0.04863796934534
N            5.16665948275565       -2.41166854663974        0.08570823495404
C            4.26433513947908        1.00523095825613       -0.05633812266696
N            5.57177503273210        1.27837940637906       -0.07637380919760
H            5.89623027532143        2.22888064544449       -0.11886936366428
H            6.24275179205784        0.52834894438400       -0.04607188053848
C            3.21280880612908        1.95037952610799       -0.09170247282807
H            3.32682944369813        3.01493276637080       -0.13884054466833
C            1.28023610533609       -1.08625596704169        0.03225970848141
C           -0.04244234984651       -0.61850730320371        0.00867504785304
C           -1.07711727855107       -1.57822191418183        0.00855224631893
C           -0.64988337497826       -2.92983046150907        0.04021063900228
N           -0.37337100436805       -4.04503182511063        0.07192240983802
C           -2.49051320883762       -1.45193117128605       -0.02878545053536
N           -3.20520171974346       -2.60264346358930       -0.08120571460918
H           -4.21027946956485       -2.57703379326064       -0.08603735568730
H           -2.74128260226907       -3.49463256287945       -0.07991359879304
H            1.47696041922905       -2.14887143056553        0.06216351383174
