29
 energy: -51.191115058155 gnorm: 0.000835900658 xtb: 6.6.1 (8d0f1dd)
N            3.72902091841664        2.82733886630637        0.05131575604973
C            3.29060675139932        1.76224269995545        0.03472895086637
C            2.82184468379153        0.45419828102637        0.01501636890213
C            1.49548900874573        0.00212107251570        0.01145614345767
C            1.53375648805205       -1.46748429647476       -0.01520796710034
C            2.86136432541464       -1.86374957040428       -0.02568023084103
C            3.66256140557764       -0.70274999687701       -0.00727035100611
N            5.00324207628384       -0.66026174171142       -0.00903782918876
H            5.47676962877100        0.22692904136471        0.00584312463227
H            5.54360245581228       -1.50665817319317       -0.02235490987804
H            3.23148920950389       -2.87105142888173       -0.04384715118166
C            0.33349506114585       -2.16097066478530       -0.01616770099078
C           -0.89771378519806       -1.51288326542641        0.00557839112914
N           -1.92831100563319       -2.35606147093866        0.02983089577303
C           -3.21161491173287       -2.12533772855236        0.04369686356387
C           -3.94782110572240       -0.94580823516487        0.00693098118028
C           -3.47974248258124        0.36730368133129       -0.02621682182250
N           -4.41390483384517        1.35319357017296       -0.08950164041899
H           -4.14902428170157        2.32181933919212       -0.05195122098021
H           -5.38797903613387        1.11785651363117       -0.03821766806808
C           -2.10723561667843        0.75506385971029       -0.00481262574836
C           -1.93345860900845        2.16131834865258       -0.00362165217500
N           -1.88609348692851        3.30976439383631        0.00288155358218
C           -0.93295910028211       -0.02077158861230        0.01271976497720
C            0.28718509086674        0.66603032523546        0.02470328188267
H            0.28839026034499        1.74738678477376        0.03901004950307
H           -5.02505563790418       -1.05893472457255        0.00236526524874
H           -3.79686565953684       -3.04146763061588        0.07988748780338
H            0.31949689166080       -3.23995917769382       -0.02515271875185
