30
 energy: -45.301575451104 gnorm: 0.000535233613 xtb: 6.6.1 (8d0f1dd)
N           -4.90246746065568       -0.08314985655316        0.36479080819417
C           -3.54749941380504       -0.16790825829334        0.18827350103941
C           -2.98874940742001       -1.43893358609454        0.12863942095373
C           -1.66376892071634       -1.77897030477017       -0.09489005576086
C           -0.49969812449529       -1.02000715496256       -0.15678724476875
C            0.69817679605018       -1.77030582721234       -0.25856234225699
C            1.93090195133760       -1.19341510074341       -0.15569366160447
C            2.02390624494312        0.24815431960869        0.07825285102236
C            3.37456406246134        0.55630228893985        0.20943390509200
N            3.93705137178294        1.82360311336531        0.37882002629386
H            4.86796701513203        1.79646699701307        0.77086749221296
H            3.33874362196493        2.46856431426739        0.87552390440497
C            4.10885200263192       -0.64307758383588        0.04287127639243
C            3.24995506485366       -1.70020134149156       -0.17373581196362
H            3.52700727225137       -2.72700292705290       -0.32637279575725
H            5.18379517284320       -0.70320635762223        0.08546159841699
C            0.85794662442591        1.00583858795714        0.09107771601059
C           -0.39755334804542        0.43720992094535       -0.06838915288108
C           -1.53033384486874        1.31749865005469       -0.21249155291442
N           -1.24368415936137        2.62963541850147       -0.48317507026154
H           -0.35946531802917        2.84788704132689       -0.90723115633543
H           -2.01167488424486        3.23275310293383       -0.72518639738362
C           -2.87525175535416        1.04257321484255       -0.04948924964096
H           -3.53015635381046        1.90550133881469       -0.12842550789863
H            0.95434537539459        2.07050126288387        0.25855004173641
H            0.61795395341197       -2.84362337923655       -0.37674005869494
H           -1.49684731554042       -2.84813186469264       -0.17188200902644
H           -3.68115804334548       -2.26388073150460        0.24573929079117
H           -5.30950333861613        0.80646383030437        0.59362862719234
H           -5.39589759227651       -0.90149343559335        0.67561701859528
