30
 energy: -59.714086138870 gnorm: 0.000736970907 xtb: 6.6.1 (8d0f1dd)
N            4.72403911407992        2.09555727193178       -0.89833842002272
C            4.00476220079837        1.24669730257386       -0.60469018301205
C            3.21308319992795        0.16026251764559       -0.24361526155195
C            1.83250253152045        0.08503981295783       -0.09005053055138
C            1.49963766616576       -1.33436929062064        0.23514052306837
N            0.23933093555603       -1.72813708601998        0.25064505390364
C           -0.72664129167652       -0.83657968328570        0.03262119202430
C           -2.02652053773483       -1.36663439807251        0.02599426225112
C           -2.12272580164606       -2.75535552148714        0.25646518108586
N           -2.28271135877507       -3.88113669260839        0.42282207390756
C           -3.25991677043052       -0.70035978066569       -0.24490939478431
N           -3.53533426678135        0.58455264610683       -0.14578253451935
C           -2.72982591748159        1.60094128266904        0.10978046661077
N           -3.38013674330174        2.74468518178977        0.40429536536412
H           -4.38455057006014        2.73930314789886        0.37856437745975
H           -2.87911955582627        3.60774246695830        0.52916631153754
C           -1.30717924787068        1.64512325124059        0.05518351104358
C           -0.73159347091360        2.92589903014887        0.21406059280710
N           -0.34624702480919        3.99915790874451        0.35258483638950
C           -0.39134242631349        0.59157944924096       -0.11550246250564
N            0.87936465031454        0.97358624256498       -0.23178145183566
N           -4.31815090141679       -1.46427924498296       -0.58251148172278
H           -4.24704520631001       -2.46713720557192       -0.60196506873593
H           -5.21087844733476       -1.01691758422214       -0.69400640422804
C            2.67670796610705       -2.04744818472933        0.30298951178180
C            3.73404146916664       -1.14800200612690        0.04003446270223
N            5.03491727444995       -1.44765406477424        0.00835777816606
H            5.35191225762182       -2.38289272826288        0.19601148634446
H            5.70710518920134       -0.73260415635415       -0.21690026579469
H            2.77905199767181       -3.09674401928759        0.49724686521640
