34
 energy: -52.169391629137 gnorm: 0.000628213585 xtb: 6.6.1 (8d0f1dd)
N           -5.12473490083496       -0.39731489392053       -0.55052304415795
C           -3.77010759540942       -0.33520349681988       -0.29867063346502
C           -3.02819262796049       -1.48271749903263       -0.42864614586568
C           -1.67267217891048       -1.68018463539476       -0.11375902925729
C           -0.65547334708345       -0.78695189653424        0.12945522684646
C            0.67371123538258       -1.34552520160806        0.29106495665079
N            0.83277073212458       -2.67925549452085        0.61560529687229
H            1.76638909295239       -2.89880886697599        0.93186379268360
H            0.10430045028956       -3.08609219181673        1.18118273636833
C            1.76787861686342       -0.56380123665894        0.02568402813651
C            1.62097461380963        0.85893328404565       -0.21711027572617
C            2.89378322933879        1.38839133432279       -0.37791390493333
N            3.23113326495117        2.73032197616659       -0.53957816020601
H            2.50222974930115        3.28393081784804       -0.96584723067698
H            4.12781041443287        2.87265742243038       -0.98221603068095
C            3.83397887625947        0.32850133613841       -0.26828937958226
C            3.17003858436140       -0.85187229309151       -0.02674277566706
N            3.73630717650167       -2.12771371368089        0.15168455326219
H            4.74128562974392       -2.09797278362902        0.02457292907568
H            3.33295277359440       -2.81737362714440       -0.47296250416821
H            4.90111442909310        0.44590480334469       -0.35702967037847
C            0.34918337815646        1.43840767116265       -0.10439398669148
C           -0.76985344616560        0.67049589402623        0.10389004729643
C           -2.02447867700838        1.34147904105836        0.41710416991084
N           -1.88562210841868        2.61519662718488        0.91690397795719
H           -2.70452009089221        3.04048317171986        1.31988345419520
H           -1.01131584822794        2.84234676807460        1.35964940281997
C           -3.30299763397593        0.90174009526120        0.22323368145363
H           -4.08971630461495        1.60401260900940        0.48143061094677
H            0.26482856525309        2.51272694253438       -0.19363433515897
H           -1.37452730444743       -2.71966508653380       -0.17543750138935
H           -3.56043504203053       -2.36143305547066       -0.77391386758146
H           -5.45029924367056       -1.17991655605808       -1.09343202258465
H           -5.60288340865902        0.47184868086158       -0.71965390920490
