26
 energy: -47.228499142791 gnorm: 0.000917024444 xtb: 6.6.1 (8d0f1dd)
N            4.01738242756136        2.23482664731261        1.06121540160302
C            3.33771019519302        1.37424119994102        0.71073248539076
C            2.61008035842678        0.26626804540085        0.29020753210186
C            1.25612258464286        0.13749545148552        0.03942072942225
C            1.01755418481972       -1.27274796919821       -0.36760756633420
C            2.25462303424961       -1.93144939680370       -0.37921491809423
C            3.22617553154719       -1.02433596424354        0.01799203073366
N            4.54398414537523       -1.23787014485325        0.16070221281028
H            5.14471326400124       -0.47670387237217        0.42762525075506
H            4.94855825225119       -2.12700710260229       -0.07164280466029
H            2.42272885660109       -2.95831421037378       -0.64333939383089
C           -0.27874535108982       -1.67126996965591       -0.56198343168107
C           -1.31463361818102       -0.72718405031496       -0.37914910646241
C           -2.59708265382519       -1.15712085964104       -0.12473504163088
C           -3.72838080057022       -0.35879490320657        0.21744780891996
N           -3.94997912028463        0.89329902542232       -0.12989400186646
C           -3.04483452056528        1.70723234165985       -0.65046173590219
N           -1.75485441747543        1.70391394057866       -0.54625623167638
C           -0.92222492447302        0.71402948369987       -0.25174601385922
N            0.30720594997955        1.06601564976236        0.04695056038482
H           -3.46657203513665        2.58670892175393       -1.12901673648132
N           -4.74432229883475       -0.96230458239986        0.87132876301256
H           -5.56389698716570       -0.41960423538052        1.07777399092472
H           -4.71063405064913       -1.93307787524584        1.11956155923616
H           -2.74600768930988       -2.23150847872385       -0.06670085725327
H           -0.53024218498642       -2.70418402909986       -0.76738765056179
