29
 energy: -55.990422829729 gnorm: 0.000569087403 xtb: 6.6.1 (8d0f1dd)
N            2.93701394037082        3.09019532055050        0.31324582371932
C            2.74598440470994        1.96566845417432        0.17777083681282
C            2.58775319679802        0.56752848786301        0.01459558597934
C            3.79149653121212       -0.17694261460816        0.21497075224375
C            3.97487541116864       -1.50600972171091       -0.17519307492336
C            3.00338322335973       -2.37684979884041       -0.65442501403404
N            1.70992555044271       -2.31303184007322       -0.53388642167421
C            0.90297615036679       -1.32401729712094       -0.21494898197362
N           -0.34038855399086       -1.70002755046081        0.04398109830626
C           -1.29336142177148       -0.79206682774269        0.06887706470157
C           -1.05338470253697        0.63021462286467       -0.25978921434448
C           -2.29778625852367        1.28096865565506       -0.26745907219402
C           -2.55905586331210        2.62066259804028       -0.54449127023644
N           -2.81151015610941        3.72070493825058       -0.76789637266914
C           -3.28685409690303        0.32078876251752        0.07720961414955
N           -4.59501243114905        0.55466365210739        0.18780809404777
H           -4.96221571694810        1.47660072651127        0.01845749290167
H           -5.22109430495521       -0.19300853661803        0.43811236639536
C           -2.66204428123867       -0.95143329061593        0.29106143422833
C           -3.36766595973455       -2.10029597335083        0.64437823412350
N           -4.02022376247780       -2.99955467825718        0.94065726374070
C            0.24759689103634        1.05638426635793       -0.39286090387155
C            1.28504530432524        0.11933682564987       -0.24626991501563
H            0.47287410612765        2.10474112875409       -0.53508699748602
H            3.34898680475897       -3.30505470509116       -1.09938411969448
H            4.98790338260909       -1.88357595150479       -0.12111413129584
N            4.85941273436250        0.48475676611363        0.71813596833710
H            4.81288689706929        1.47019987648517        0.91402865822769
H            5.74656639113186        0.02017304429944        0.79053894349771
