26
 energy: -52.030440416022 gnorm: 0.000978439784 xtb: 6.6.1 (8d0f1dd)
N           -2.40712223758347       -3.30686516543501        0.14687573283202
C           -2.19623349621536       -2.18396686463265        0.03676433811103
C           -2.04993491514196       -0.77998020956735       -0.08961977779574
C           -3.24394102435108       -0.02351150150012        0.08082236468182
N           -4.35173266428458       -0.69188504227979        0.46742517100548
H           -4.32689859386165       -1.68991704902146        0.59631307953027
H           -5.23386297057426       -0.21564468374805        0.52776289413399
C           -3.37509572466839        1.33960314390161       -0.21809775928997
C           -2.35603808615327        2.22796087269843       -0.52576321063624
N           -1.07382412433881        2.10879325499940       -0.31873050319002
C           -0.31394030447680        1.05694092719402       -0.12512475209664
C            1.03295174909805        1.30199069773480        0.24595176317346
C            1.45769763105058        2.61703612027802        0.53192620519387
N            1.81301930937010        3.67714799199849        0.78640752066372
C            1.92409057798880        0.23960356029986        0.21187684233264
C            1.42870138614787       -1.07996164575901       -0.28869901703430
N            2.47042588111753       -1.87350401731204       -0.45055937648286
C            3.51613995608041       -1.11725988143103       -0.02770963760331
N            4.75488873176381       -1.59041503889542       -0.01886428313747
H            4.92133588488750       -2.53016421177790       -0.33311799467544
H            5.50328234476235       -0.99781023262057        0.29507445262456
N            3.23799029283731        0.15353198892932        0.35685737453784
N            0.15467509893702       -1.33261316339781       -0.48365234975104
C           -0.72384362713563       -0.35788980765919       -0.29701876860220
H           -2.64191378044450        3.21821048125036       -0.86519380744853
H           -4.38085650100834        1.73848119134864       -0.19767020117854
