28
 energy: -51.481119448370 gnorm: 0.000821490656 xtb: 6.6.1 (8d0f1dd)
N            2.03730571170973        3.30952195972342        0.05490534868097
C            2.04652852825480        2.16033582449449        0.03018985181591
C            2.16155474529246        0.74777536368708        0.00658231363432
C            3.50101206204106        0.31065655768532       -0.00540328674066
C            3.94763677890691       -1.02896917937149       -0.01460248112004
C            3.21431744064714       -2.18533618270759       -0.00840180537889
C            1.83346337675373       -2.35203080262630        0.00300865404380
C            0.79216910806906       -1.42857315592517        0.00457055370509
N           -0.40461414776923       -2.03907018743749        0.01167015904441
C           -1.49478067938817       -1.32004479794752        0.00751205740431
C           -1.47438130999018        0.15941101765895       -0.00637904565835
C           -2.81301231254590        0.53325081516955       -0.01303658132308
C           -3.40174496402272        1.78988889399735       -0.03039812223039
N           -3.93651279053967        2.80975167349087       -0.04432073234686
C           -3.54107157853928       -0.71630652536192        0.00014980047296
N           -4.87024626497314       -0.82443746742381        0.00102062148625
H           -5.45071536519584       -0.00378669106602       -0.00735696181293
H           -5.28098209938934       -1.74162104297705        0.01259113531514
N           -2.74684555704961       -1.79144738925816        0.01192795886691
C           -0.24617241849243        0.79441852228986       -0.00756487367474
C            0.92635215586907        0.03661419042866       -0.00026240374179
H           -0.20024959853431        1.87462951399580       -0.01412401548489
H            1.47344026327455       -3.37266458690562        0.00858341041796
H            3.78857558454947       -3.10317647370569       -0.01303335266152
H            5.02537312401623       -1.14067122566523       -0.02483406097802
N            4.48098092736589        1.25158966637278       -0.01416835837842
H            5.44490586883883        0.97439707767414        0.00298457765827
H            4.25982740434085        2.23177561891099        0.01060269798427
