28
 energy: -56.269672130959 gnorm: 0.000444841822 xtb: 6.6.1 (8d0f1dd)
N           -2.62729232370901       -3.94973565563508       -1.11680274206862
C           -2.29980387955968       -2.89655149847732       -0.79249654934674
C           -1.99471582897531       -1.59598667344019       -0.39201831795464
C           -0.74513243299091       -0.99699276367037       -0.25253623316042
N            0.45201731950060       -1.53843586506155       -0.37209004422866
C            1.49695999751410       -0.75551889277048       -0.17665775402763
N            2.62443577298830       -1.28656013420716        0.21155354495708
C            3.84931278398325       -0.80311653389292        0.29520565314246
N            4.67873837224847       -1.47732254837143        1.11494680388987
H            5.65919217903154       -1.26614566834859        1.14927815521780
H            4.32921710941153       -2.29609111486134        1.58253837944597
C            4.35894625134400        0.25467842404620       -0.50503028966870
C            3.54649021993692        1.23415996400419       -1.02939348727726
N            2.30767984786811        1.50931808595489       -0.66865507875087
C            1.36921069798450        0.74379596495115       -0.20850802172319
C            0.11124945722928        1.28038449583100        0.18652805131444
C           -0.02142942318186        2.66314277542418        0.42841042783524
N           -0.10868149410538        3.78513768482335        0.64856754035172
C           -0.96865621260822        0.41045973172788        0.17998216915591
C           -2.34883084707869        0.59026605643396        0.33759842809615
C           -3.04301253482313        1.73333658265054        0.73576181955363
N           -3.68414793897753        2.62901377917923        1.06512524537294
C           -2.98647833323545       -0.63215487385955       -0.01289170918032
N           -4.29928071594767       -0.85108475337799       -0.00399878088835
H           -4.93224675880214       -0.11891349405649        0.27515461495939
H           -4.66503329715397       -1.74683564241635       -0.28361559097516
H            3.97431725658752        1.97772798332086       -1.69224413273237
H            5.42737401772093        0.31709563529676       -0.65603881731160
