27
 energy: -46.942407087069 gnorm: 0.000668305965 xtb: 6.6.1 (8d0f1dd)
N            5.16350235511376        0.03120384400446        0.10925332262019
C            4.01424877859346        0.02444548088185        0.05236672340305
C            2.60580844423320        0.00706432763497        0.00142570618802
C            2.01120022672423       -1.26282806161257       -0.01091966245292
N            2.83388529224247       -2.34549767315750       -0.01735713259044
H            2.45099327148270       -3.27114203204122        0.03971170574298
H            3.83064575805634       -2.23163489388994        0.04318646724958
C            0.63018016151882       -1.55216782136086       -0.03371518180307
C           -0.49903985847922       -0.76568646932289       -0.02075956657332
C           -1.74726631537684       -1.45276169156849       -0.02868772282493
C           -2.90035198760657       -0.73338914882859       -0.02241535357528
N           -4.19888993496467       -1.13509753950067       -0.01707436892162
C           -4.90256888113452       -0.01658572484710        0.02318648315760
C           -4.12914058276834        1.17156176874730        0.04821359595369
C           -2.81967412731566        0.74651462175377        0.00995585198477
N           -1.65979222226028        1.40031222045969        0.00905599582381
C           -0.53253446290749        0.71062593057142       -0.01143319421716
C            0.60777983018918        1.53160954589590       -0.03404471101021
C            1.96937895355286        1.28203568380912       -0.03264881523673
N            2.79145053607860        2.36883553514993       -0.08810899431546
H            2.39543223577943        3.28743670015745       -0.01037256603391
H            3.78540637151726        2.26490611670208        0.01497831666488
H            0.33663114798030        2.58133819143950       -0.05087668625933
H           -4.50269474670527        2.17479992789623        0.08218635949093
H           -5.97893437663376       -0.06600690894801        0.03468865583475
H           -1.76111818498904       -2.53394655103184       -0.03226765357924
H            0.42601659387907       -2.61950904529395       -0.05756986432063
