31
 energy: -54.640383483490 gnorm: 0.000429698853 xtb: 6.6.1 (8d0f1dd)
N           -4.47799783965073       -2.01971970131705       -0.02639433474201
C           -3.73388054078465       -1.14050941416090       -0.00700102570008
C           -2.91884140685618       -0.01445703262120        0.01521626060190
C           -3.42708593085002        1.32840950870740        0.03221733303940
N           -4.73665318369875        1.62391704257275        0.02692507061793
H           -5.04687640744863        2.57848690059010        0.04584532460357
H           -5.41529802220651        0.88186210619380        0.01742710134862
C           -2.36175351389670        2.24093907388380        0.05058575864335
C           -1.17900985175131        1.51499498631798        0.04571254333708
N            0.06452178707342        1.95090766507742        0.05076399949643
C            1.07674965046758        1.07521613096729        0.04061209107799
C            2.31943861617775        1.70446627327264        0.03578130949987
C            3.63140746979399        1.22484495144671        0.01239588477019
N            4.62055645242881        2.17121577394695        0.04847359452606
H            4.37494730748096        3.13088798919540       -0.11728600269568
H            5.56707108905234        1.90108050870472       -0.15143703581099
C            4.03850444588597       -0.10941497210492        0.00032597943583
C            3.25945116777725       -1.26173612225466        0.02606745158374
N            3.91929118024572       -2.45819527310694        0.07885539553737
H            3.40283697454133       -3.30843101807426       -0.06071673407592
H            4.90855205082065       -2.48710064806449       -0.09066032160864
C            1.85744579398868       -1.34079174035075        0.03576080008300
C            0.86328678176927       -0.37761510438346        0.03118110230031
C           -0.48741882309342       -0.84182979706984        0.01945124172385
C           -0.76718054157569       -2.22261593239182       -0.00351686656714
N           -0.98627938998282       -3.35060302772219       -0.02672171974676
C           -1.52771352329659        0.07531565792285        0.02506321456809
H            1.48451003522632       -2.36098711849721        0.04467606647888
H            5.11077217010098       -0.27091899665467       -0.01599201850818
H            2.22222402333545        2.78420218843240        0.04801694547600
H           -2.45049001867505        3.30922702654171        0.06537516370584
