26
 energy: -52.024933808948 gnorm: 0.000710700953 xtb: 6.6.1 (8d0f1dd)
N           -2.70429082303503       -2.99349495808134        0.57317560833512
C           -2.51117613645161       -1.89434807843267        0.29981238583340
C           -2.34470702305085       -0.53072170532938       -0.02860087149247
C           -3.51536602604759        0.27110220877601        0.02956976665748
N           -4.67367049734996       -0.35045170417417        0.33193016821749
H           -4.69240456558608       -1.34090946657701        0.50911277300621
H           -5.53296931967354        0.16823627054320        0.36447448647535
C           -3.57019449343431        1.64348090572694       -0.26073172904008
C           -2.49879352932068        2.51160514139017       -0.38824281763596
N           -1.23323699397114        2.32234926841129       -0.13938039799576
C           -0.52104767237411        1.22050364488587       -0.09102599644437
N            0.74837001989425        1.35289500871399        0.25666105084251
C            1.57572657270911        0.33513664830110        0.23393275326395
C            1.11129265927166       -0.97909012206240       -0.30702210243639
N            2.13719248836016       -1.78351522781289       -0.55411929947414
C            3.23413817557020       -1.12690095447134       -0.15266125374126
N            4.44458494664086       -1.67839773240633       -0.21925137011734
H            4.53108974414272       -2.62033492907284       -0.55975454787116
H            5.25950795776675       -1.15209080143887        0.04506528739295
C            2.95859805396968        0.22093225925717        0.28723597954568
C            3.92885785539302        1.14120136952053        0.66961934152891
N            4.78111519364137        1.85064616930457        0.97421705417425
N           -0.15302775447878       -1.13487377265621       -0.55514666201758
C           -1.01880668169379       -0.15758852213807       -0.34625116903262
H           -2.73190944472869        3.54818271381281       -0.61257503240389
H           -4.55849758286469        2.08089330120719       -0.30344373387061
