31
 energy: -60.241175239706 gnorm: 0.000431939015 xtb: 6.6.1 (8d0f1dd)
N            2.84375233983594        3.16993939821095        0.00278757611412
C            2.69276760452234        2.03220379209931        0.00191329334638
C            2.64652008127275        0.61109408558270        0.00189046124225
C            3.90450832528602       -0.03024406469137        0.00238342949255
C            4.10844615365833       -1.42214418886000        0.00201389860267
C            3.17971584306036       -2.43647049193241        0.00109810609926
C            1.79126603688019       -2.37854278261842        0.00031386034572
C            0.92200306842025       -1.29033772879651        0.00023637760171
C            1.32386233490519        0.11742612209735        0.00101416161959
N            0.43891873004255        1.11442480951819        0.00096452286770
C           -0.84965846803929        0.85146252208104        0.00014911519068
C           -1.38642809649252       -0.52149781384943       -0.00074491740525
C           -2.78218692623887       -0.43528112925071       -0.00174471464699
C           -3.72656899344871       -1.46164485382396       -0.00370587616769
N           -4.56269053780989       -2.25109634788004       -0.00216566973598
C           -3.12556390872342        0.94912340003759       -0.00107402796254
N           -4.36715314099261        1.43572397617704       -0.00157437979617
H           -5.15578993729758        0.80991600439258       -0.00238254210545
H           -4.51902952270277        2.43088044290554       -0.00113934021696
C           -1.93276300663892        1.73368655791971        0.00009510534993
C           -1.92644974572941        3.12846725499734        0.00116143275446
N           -2.00548406774847        4.27521568908663        0.00045483996998
C           -0.47494970595114       -1.56825933173484       -0.00064414757203
C           -0.94474706211836       -2.90046524637518       -0.00109153656185
N           -1.33347478480106       -3.98013129981104       -0.00238571358465
H            1.29781487933546       -3.34429535949748       -0.00038402440642
H            3.59029344492133       -3.43816081801804        0.00094478869737
H            5.14820432114709       -1.72654722824479        0.00250755659264
N            5.00943522700780        0.75090216637192        0.00333982038413
H            5.92444796586495        0.33818229527437        0.00355604694069
H            4.92550212717253        1.75335410793182        0.00348964985032
