27
 energy: -42.131831578106 gnorm: 0.000654239215 xtb: 6.6.1 (8d0f1dd)
N           -3.57580809644375       -2.01327100084954       -0.02662318938907
C           -2.95188598918008       -0.79686566948696       -0.02533166119820
N           -3.59915446417359        0.34204614330160        0.05683594679998
C           -2.66463742028103        1.34486998527756        0.10731573182730
C           -1.37926031018822        0.85789342508880        0.04711793416053
C           -1.51606401574646       -0.58552104108115       -0.03441334428202
C           -0.43430790350824       -1.40064916944725       -0.04943871645456
C            0.88436818601065       -0.85718325953459       -0.00049893402570
C            1.89253349192577       -1.78174625703840        0.11245346303573
C            3.30143577357338       -1.64435229522781        0.22439274860935
C            4.04508592230759       -0.52218887902571        0.05689647881576
C            3.57858063704426        0.78285295523622       -0.25130780329783
C            2.29767545876783        1.24240167522345       -0.27246529356342
C            1.04050243007342        0.61276474291969       -0.04106612718040
C           -0.08574598663380        1.43183664535966        0.04554301631225
N           -0.00402580625532        2.81303450291673        0.06838163354842
H           -0.87666165139639        3.26688098964512        0.28485631588964
H            0.78998870507616        3.22463056900945        0.53038063253833
H            2.20855595852838        2.29019943331194       -0.53562983547713
H            4.35371714937696        1.50518754236063       -0.47398389020670
H            5.12064224005251       -0.62369212210239        0.13638629950945
H            3.83279074100454       -2.56552167763110        0.42825138518125
H            1.56052470312210       -2.81420670989469        0.14775966177161
H           -0.54689496387340       -2.47686318887341       -0.05770065574946
H           -3.00976976290091        2.36110018359523        0.17207344201957
H           -4.56664965762631       -1.97345913538087       -0.20599597452868
H           -3.08464215355615       -2.77504096777221       -0.46433600576613
