30
 energy: -49.300628760091 gnorm: 0.000627855356 xtb: 6.6.1 (8d0f1dd)
N            2.40234724439161        2.66695269836154        0.66237751627535
C            2.22888232983209        1.42173046970260        0.15844971811239
C            3.38334643961498        0.84138838851311       -0.41068982402316
C            3.54704684675188       -0.47553094711764       -0.76194663808135
N            2.85967382795990       -1.50969865216790       -0.32956529477137
C            1.67025954548228       -1.51983220993387        0.23564722123915
N            1.41847050238259       -2.63128298565317        0.95867564056364
H            0.52742299698170       -2.76151353809469        1.40432578905892
H            2.15465741039166       -3.30568239487126        1.07254853122384
C            0.61539431419237       -0.55790879354625        0.06798334028165
C           -0.71395996280496       -1.00288737232745       -0.01169792130864
N           -1.05081195181090       -2.35017387426010       -0.12522032397400
H           -1.99348546941116       -2.46003943998318       -0.47748560178301
H           -0.38378487981007       -2.91939759382197       -0.62723653082444
C           -1.75463314002194       -0.07423907969830        0.00347434887531
C           -1.46459028213106        1.34748395698573        0.05063278914738
C           -2.71595918742886        1.97395263017839       -0.04585840770576
N           -3.70258495997671        1.07845619516527       -0.11634590231247
C           -3.14771818377046       -0.14880076239248       -0.09544016381728
N           -3.93657082346818       -1.30718532483352       -0.19613893141354
H           -4.90658142958157       -1.03101018446809       -0.30306012581836
H           -3.84549071830338       -1.90947835223163        0.61605761736384
H           -2.93230655621548        3.02673010777754       -0.04532845331580
C           -0.15672726207612        1.78118147528406        0.12924931332250
C            0.90914576944846        0.87821158152159        0.12340441323291
H            0.02333490387147        2.84692960414573        0.08371231251967
H            4.41960912143360       -0.75043250109423       -1.34594367395379
H            4.20959545693731        1.51487538384071       -0.60012765470181
H            1.62568219238885        3.19062734941522        1.02377957498531
H            3.27994958635009        3.13790704900403        0.53131732320294
