35
 energy: -72.720257898956 gnorm: 0.000852836179 xtb: 6.6.1 (8d0f1dd)
N            1.85671165137837        3.94812797279968       -1.07297239539909
C            1.87695744140594        2.86991729812584       -0.67598034655105
C            2.05449294952717        1.50798634953436       -0.34754684152626
C            3.38732831003665        1.03188787738669       -0.59829930275115
N            3.94484235440151        0.00201868748661       -0.00187342411110
C            3.38828386112338       -1.02833442983627        0.59468403607777
N            4.19430408622539       -1.74165631695022        1.39678227111933
H            5.15620672338627       -1.46071655580637        1.47972787705677
H            3.89662324509609       -2.62403217628202        1.77838099584108
C            2.05597722716164       -1.50597823328453        0.34398728708266
C            1.87967156915092       -2.86755552280890        0.67424956503726
N            1.86334557736247       -3.94642270071125        1.07033725193124
C            0.95210750285619       -0.73465361010831       -0.03613018357125
C           -0.26954345151997       -1.38434159366093       -0.34683442149717
C           -0.28115656777380       -2.72383445458791       -0.78968228049181
N           -0.32074731314612       -3.76961151576300       -1.26005285419650
C           -1.47616690443741       -0.69666660705225       -0.23654253724100
C           -1.47685301988131        0.69516794946175        0.23183044484845
C           -0.27084969398143        1.38370866900144        0.34314933531600
C           -0.28311009550538        2.72258431678976        0.78806833119462
N           -0.32217481858025        3.76724711421004        1.26090570366867
C            0.95142315874169        0.73527841073323        0.03193638764822
C           -2.80598494269527        1.09611363239424        0.38592451119378
C           -3.32258397596878        2.32058182529915        0.81237227129009
N           -3.84134718880228        3.28758742349077        1.15408645149267
C           -3.63468242938697       -0.00187509779581       -0.00207027309985
C           -2.80486327341904       -1.09900392225081       -0.39034512974749
C           -3.32031026785919       -2.32411910563753       -0.81630361822227
N           -3.83815057023643       -3.29151821088254       -1.15808725169590
N           -4.96467876532430       -0.00273635585630       -0.00142307405036
H           -5.47038935784339       -0.82365135039610       -0.29379673935511
H           -5.47116690404264        0.81743580667097        0.29172692787922
N            4.19266824162146        1.74636374345310       -1.40006955880305
H            5.15491027069942        1.46654617515435       -1.48288554930283
H            3.89405216721817        2.62851720069316       -1.78148642085471
