30
 energy: -55.706443960808 gnorm: 0.000680379001 xtb: 6.6.1 (8d0f1dd)
N           -5.58554828959041       -0.32114179761549       -0.12424759562287
C           -4.45002782497091       -0.14348480726046       -0.07876837691629
C           -3.06058396041865        0.09518615366525       -0.02585019835788
C           -2.68445243537162        1.44227581191656       -0.02727457088674
C           -1.36562336031429        1.95897452615295        0.03275274368319
C           -0.13301718293349        1.35857791532277        0.04471971609561
C            1.00062225168219        2.23967084185840        0.08333363843085
C            2.25311927571991        1.72863288744315        0.05628317290901
C            2.41371322135305        0.26968333914103       -0.01640355606133
N            1.37293849992806       -0.56062347131918       -0.02298216214277
C            0.15092635246145       -0.07951585480436        0.01359600444328
C           -0.84248831217814       -1.10835263577981        0.04265021158150
C           -0.27146262173574       -2.40596200842683        0.08531598138420
N            0.09368711530580       -3.49396290423851        0.12939600993891
C           -2.23901304099686       -1.07580489752677        0.03218642250728
N           -2.89720068783144       -2.25953173950915        0.07479965124244
H           -2.37600404104819       -3.11969588385606        0.09246242167396
H           -3.90112769691051       -2.29329056630572        0.04488894432166
C            3.77187361151792        0.00815601174239       -0.06352567146158
C            4.41003875595287       -1.22695595053858       -0.15231591058088
N            4.97542664098800       -2.22568255575663       -0.22872361753080
C            4.46422053569180        1.28523268139352       -0.01117514088484
C            3.57126656284034        2.30198948610721        0.06146686998235
H            3.78398550491997        3.35307133299278        0.11383407681398
H            5.53619856912755        1.37014324598333       -0.02977327132884
H            0.82357854992322        3.30739137687983        0.12107935006125
H           -1.34056955711595        3.04495431640880        0.05970132973739
N           -3.66573319426331        2.37548787798916       -0.08255568485667
H           -4.63263970718779        2.10232462693047       -0.12224875248383
H           -3.44056519184479        3.35325338541010       -0.08112153199189
