25
 energy: -47.504027224704 gnorm: 0.000758237728 xtb: 6.6.1 (8d0f1dd)
N           -4.07629344219267       -2.16271554150046       -1.11504655963824
C           -3.37499688911437       -1.31988793971084       -0.76484420220264
C           -2.60478429590828       -0.24045460911935       -0.34303935874579
C           -1.23671000403858       -0.15529811300360       -0.15327332484199
C           -0.95103653666168        1.22413634283544        0.34866896524873
C           -2.16024803645056        1.89848375489014        0.47588020795303
C           -3.16836513757123        1.04408045907162        0.02466395251588
N           -4.47955104744649        1.30697485606647       -0.04735821576715
H           -5.11576152062488        0.58920489390942       -0.35156139169056
H           -4.84407115359665        2.18882627263298        0.26660231213150
H           -2.29472349279526        2.89903841195760        0.83666689379354
N            0.28165183022523        1.57833235110392        0.61578954353414
C            1.25207935141904        0.68046483910591        0.44731780714089
C            2.51721841712369        1.15236838716444        0.12459177398349
C            3.68495547322615        0.39750494243929       -0.13666804292303
N            3.94973267944660       -0.84600644560172        0.24891783502606
C            3.05216862806475       -1.71409321266640        0.66578513980516
N            1.77154605011870       -1.74380282829611        0.45404335451522
C            0.91958738296390       -0.76310426588761        0.24947562279120
N           -0.30031046681444       -1.08870687741801       -0.14600486047465
H            3.46607577845862       -2.60913373281806        1.12018452558330
N            4.70513868952953        1.01578307600424       -0.76612630367203
H            4.65046986161314        1.98219354584345       -1.03024599368814
H            5.55583501754828        0.50148652288350       -0.91093058040709
H            2.56891017727564        2.21474262201281       -0.08446601047163
