29
 energy: -55.984511962096 gnorm: 0.000565357449 xtb: 6.6.1 (8d0f1dd)
N           -5.61658076365937       -0.08068031264611       -0.20496458981909
C           -4.47345112245499        0.01297738497099       -0.12579275308433
C           -3.07052323241572        0.15112331399993       -0.03612068205626
C           -2.60073761329226        1.47273588143670       -0.01873579166203
C           -1.25128698176731        1.87501030616490        0.07344348193771
C           -0.05978419651517        1.18613148348907        0.08399795983231
N            0.98918981836920        2.04586766170870        0.14350956733866
C            2.19468376327970        1.57403236202864        0.09487012805362
C            2.49409826914270        0.12735162215716       -0.01984644355768
C            3.88349929452226        0.06301072392499       -0.06303270458773
C            4.69880774148926       -1.06018651996393       -0.17619932755971
N            5.37104259186915       -1.98780915439237       -0.27443908961969
C            4.31738866000666        1.42653106367163        0.03162875053152
N            3.34028803607500        2.29955762576947        0.12426339248358
H            5.34335769084173        1.75223465076923        0.03134281385470
C            1.43115336085900       -0.75726907540397       -0.03739207171469
C            0.12515637366252       -0.26940009771380        0.02560307179586
C           -0.93737319490293       -1.21749587593866        0.05436445410512
C           -0.52791958891984       -2.57366643263446        0.10266900841390
N           -0.26536579434650       -3.69132581069835        0.15173246937757
C           -2.33899430485741       -1.06940655454466        0.04032190096743
N           -3.08692168614257       -2.19828962904146        0.08930881330217
H           -4.09048758772382       -2.14851195618777        0.05542136871434
H           -2.64658185993739       -3.10205925390105        0.11558644969548
H            1.61556300550654       -1.82091014080342       -0.09503425952451
H           -1.09922010633415        2.94744683097519        0.12033648469206
N           -3.50471918953236        2.47554856295473       -0.08009404399171
H           -4.48962252889784        2.28329448919274       -0.15071180637422
H           -3.19615838972424        3.43119940515591       -0.07506775504443
