32
 energy: -63.964410129027 gnorm: 0.000717005642 xtb: 6.6.1 (8d0f1dd)
N           -3.51487849760126       -3.36784172382769        0.92366939303430
C           -3.00831407483100       -2.37377264467713        0.64579127927456
C           -2.49865788898959       -1.12167921485159        0.30353109680941
C           -3.32672989483067       -0.00000532757829       -0.00329381861673
N           -4.65868846139955       -0.00019593349284       -0.00404563041078
H           -5.16433365736674       -0.84092324038414        0.22320088366352
H           -5.16427892875179        0.84043672158269       -0.23186162274223
C           -2.49842128703784        1.12170222228825       -0.30929991187516
C           -3.00768337461981        2.37383404916132       -0.65228444131260
N           -3.51379609240369        3.36804764657995       -0.93157707779258
C           -1.16598990699625        0.71149498599050       -0.19260207656276
C           -1.16615231079403       -0.71149639189136        0.18806200797454
C            0.03132082624098       -1.41130541169650        0.29416633309210
C            0.06428301248599       -2.79831631896277        0.54236552137117
N            0.12196638771202       -3.92491087021230        0.75085853239587
C            1.25483382276581       -0.74349249040985        0.03706243642718
N            2.29933623215355       -1.47783204993045       -0.23153125385411
C            3.56964377898679       -1.15027746623377       -0.45596886733256
N            4.27012400453596       -2.11575871485380       -1.09083857989086
H            5.26971805307232       -2.06688088889222       -1.16447148170220
H            3.80727566226051       -2.99279636423141       -1.25802342143176
C            4.22517175567461        0.00006959018094        0.00053495817540
C            3.56907853430993        1.15040466902910        0.45624222622906
N            4.26878672372754        2.11596992694421        1.09183200586011
H            3.80566679891218        2.99296737307221        1.25854472276347
H            5.26827805956825        2.06708290016891        1.16676645391053
N            2.29900857402200        1.47789671370302        0.23035126657321
C            1.25485084714502        0.74351114737442       -0.03934214989991
C            0.03157817417683        1.41130425420805       -0.29766959366830
C            0.06488539474619        2.79833816849359       -0.54581432989587
N            0.12250353737009        3.92488332298537       -0.75481221268360
H            5.30697451085524        0.00008628106331        0.00116494721761
