26
 energy: -47.235292404814 gnorm: 0.000739732437 xtb: 6.6.1 (8d0f1dd)
N           -4.14130717611543       -2.19326855018316       -1.06244643600307
C           -3.45563648451403       -1.33469675278557       -0.71518685011391
C           -2.68767366825180       -0.25730429345880       -0.29363294102477
C           -1.30954896317601       -0.18808952090963       -0.10682453282618
C           -1.00097381830721        1.18776836775557        0.35272716857944
C           -2.20082736870028        1.89258734800080        0.42921022707511
C           -3.23611852186098        1.03684346126636        0.04243235224662
N           -4.54358722366390        1.32175962302377       -0.02500959115044
H           -5.19665911132393        0.60889344837685       -0.30341450915419
H           -4.88437871500406        2.23282419906053        0.22545851372476
H           -2.31734972118998        2.91653419596490        0.72836567873889
C            0.31111429934173        1.57242267020197        0.54689631446068
C            1.33558424608615        0.65695262592936        0.29318498588566
N            2.53945579850093        1.11086065960915        0.03005158103136
C            3.64674871894438        0.40893874965374       -0.20424921363655
N            4.58493606677572        1.03459791674535       -0.94259948907027
H            4.43880875118686        1.99210784086026       -1.20657970946087
H            5.50132938557138        0.62694467582198       -0.99481994950935
N            4.00438114039111       -0.76004729528068        0.32749032177480
C            3.12164727404302       -1.63576916864202        0.75742611887333
N            1.84658072205706       -1.75030268611171        0.48994367122136
C            0.98864014688764       -0.80318792810758        0.14699029096557
C           -0.31392219656745       -1.14909221714044       -0.18657411729428
H           -0.55019095828654       -2.18032952982742       -0.40052617529034
H            3.54471007353471       -2.46801974968528        1.31335159327654
H            0.56850007134085        2.59484839166234        0.77715173318061
