26
 energy: -43.231652806320 gnorm: 0.000851863811 xtb: 6.6.1 (8d0f1dd)
N           -3.75603814930394       -2.56044968291231       -0.01547460766054
C           -3.13668760241291       -1.58863658737521       -0.00820100512643
C           -2.42895889868086       -0.39332196776069       -0.00248812742867
C           -1.03764092870505       -0.21590756710322        0.00082687170010
C           -0.78359589535105        1.23097112022282       -0.00102038024528
C           -2.01048909681629        1.88150068692515       -0.00535185813921
C           -3.02399341604223        0.90732764189926       -0.00691366984099
N           -4.35025515723828        1.13129331286376        0.00336683466670
H           -4.70799145594478        2.06765874271742       -0.05384855372149
H           -4.98765497205455        0.35539571550401       -0.04462486740160
H           -2.17138412455884        2.94284949996908       -0.00772207784088
C            0.52711521613415        1.68044946348751       -0.00033110979751
C            1.60702363495905        0.80051529491246        0.00081017351211
N            2.78898454041276        1.41389505306497       -0.00042563363334
C            4.00135024428139        0.93579739421291       -0.00100074913478
C            4.47860577129074       -0.38250820768566        0.00003528891029
C            3.72224955552823       -1.53769706351675        0.00232306338603
C            2.33536800267668       -1.64825727741859        0.00363077704117
C            1.34423610093861       -0.66726854095409        0.00267113391123
C            0.01504531275424       -1.10529922294536        0.00306676450147
H           -0.18878875216933       -2.16809192279005        0.00445407117950
H            1.95879821591812       -2.66584381442232        0.00523650867963
H            4.26800967271963       -2.47324781561446        0.00295547071578
H            5.55491251768341       -0.49691452043100       -0.00104427577770
H            4.75756637676118        1.71756666759088       -0.00259657436643
H            0.74862481191997        2.73680791685943       -0.00147832858913
