32
 energy: -63.956450909139 gnorm: 0.000073605280 xtb: 6.6.1 (8d0f1dd)
N           -6.13771455229970       -0.62722501246593       -0.00000343383015
C           -4.99056806396543       -0.54790181837000       -0.00023594790508
C           -3.58133104126308       -0.46231701615757       -0.00042736771209
C           -2.90299279627705       -1.70224577431017       -0.00191307248777
C           -1.51534814136141       -1.90033026583599       -0.00219810118086
C           -0.44264952614395       -1.02601769360364       -0.00187336764119
N            0.75010257430290       -1.66007568988675       -0.00240650360632
C            1.83198875396515       -0.92096169836887       -0.00203675916055
C            1.76009436334994        0.56064475961456       -0.00141381260835
N            0.59825368052570        1.18485491001310       -0.00074428533168
C           -0.51116329769327        0.43767118396284       -0.00077295296848
C           -1.68772240085348        1.20978783558203        0.00082099937251
C           -1.42915204928522        2.60648325165791        0.00239748986381
N           -1.31029720505909        3.74803920315605        0.00373796827904
C           -3.05625196583622        0.85290873903177        0.00106023034213
N           -3.94903051306082        1.86766616191853        0.00281465832003
H           -3.62699069825601        2.82110180339211        0.00375401111905
H           -4.93760502053234        1.68312568516392        0.00291764143056
C            3.06174480529341        1.05119694185003       -0.00190382694335
C            3.50917858516494        2.37119226867566       -0.00184509421904
N            3.95457604667532        3.43137568839620       -0.00187081143210
C            3.94414337171922       -0.08204760184103       -0.00256274040450
N            5.27382082306355       -0.00317895223063       -0.00309064975350
H            5.72580438071248        0.89684890064784       -0.00305242068327
H            5.83135271567498       -0.84167288326301       -0.00358867561133
C            3.18666782660412       -1.28370739225952       -0.00270866795174
C            3.73731045853042       -2.56374339786842       -0.00344018220900
N            4.23994163519493       -3.59826924459852       -0.00396597760208
H           -1.19748154806247       -2.93714199743153       -0.00284096924757
N           -3.65791668094667       -2.82564146978897       -0.00304313202955
H           -3.21542879677761       -3.72691450781446       -0.00411200389820
H           -4.66230638950325       -2.77688558176751       -0.00284006420935
