30
 energy: -49.305575159857 gnorm: 0.000316321872 xtb: 6.6.1 (8d0f1dd)
N            5.05052973740225        0.08606575503570        0.39965032240460
C            3.76500031678069        0.10439873499045       -0.00444384629644
N            3.27899108032704        1.34467623580444       -0.18102962261001
C            1.99872000098532        1.63570714516990       -0.23863366186341
C            0.83495147294295        0.87679290598391       -0.08826885850402
C           -0.37234522541204        1.58119390443997       -0.05694389482431
C           -1.58140189461118        0.92946950945069       -0.00963450753493
C           -1.62390595445737       -0.53054190723841       -0.01082060185453
C           -2.98598713750563       -0.89918254594511        0.01829371925073
N           -3.48648160546510       -2.20604590340800        0.01299537570412
H           -4.49589837040264       -2.21834810103149       -0.06359072850404
H           -3.06989624935260       -2.78712213759712       -0.70413559928910
C           -3.75371449036042        0.26655304433218        0.07630686065847
C           -2.91519145655957        1.38488692341640        0.06816984814573
N           -3.32541401189372        2.70421901755713        0.04123788719010
H           -4.24615612871051        2.87298278427687        0.41618999379866
H           -2.63499770477495        3.37164043191267        0.34783160494183
H           -4.82900347372943        0.29790778885453        0.11827338095055
C           -0.45337518852916       -1.26961509598000        0.01189646961128
N           -0.52766415848916       -2.63790860706168        0.12928879790767
H            0.28768618180931       -3.11606222242297        0.47476160651822
H           -1.40132166520934       -2.97316778775962        0.50502885038115
C            0.81197484144587       -0.60517509953695       -0.08757470871566
C            1.94269805849027       -1.36314749721415       -0.32587326168403
N            3.24209391491381       -1.08471860859633       -0.24727594298231
H            1.79698191948988       -2.40966412090069       -0.58353365168492
H           -0.33455687655077        2.66287634808985       -0.06844742653512
H            1.83997378190489        2.70281142656212       -0.38836615504249
H            5.53603461016427       -0.79142842664087        0.44762598768462
H            5.54469440966098        0.95668312314709        0.47675818368065
