29
 energy: -60.002787242515 gnorm: 0.000765539074 xtb: 6.6.1 (8d0f1dd)
N            1.27476110280993        4.22428013917875        0.20557963350006
C            1.30459846350580        3.07860762394318        0.13885349147142
C            1.47631670365571        1.68077182030603        0.01890101176388
C            2.79126603300209        1.24973434447116       -0.34577709188537
N            3.31852038198655        0.07278504745910       -0.09507652039634
C            2.73374401983041       -1.05079996346859        0.27256266569314
N            3.57291050070756       -1.97261198515001        0.77722076096324
H            3.26062217406893       -2.90820676894375        0.97570333094766
H            4.55213158461104       -1.74964194799829        0.81733002876977
C            1.36025199919750       -1.40924419828744        0.07297337456840
C            1.13200877006984       -2.79921240430577        0.17880403094778
N            1.08569507632570       -3.92969153157135        0.38173820864106
C            0.26556545323275       -0.54825744684302       -0.09461930951343
C            0.32590729848187        0.90206286456012        0.18334489595232
N           -0.75112911660655        1.61870966806341        0.51238265677479
C           -1.93201566893869        1.06850402075711        0.37494627219131
C           -2.12366028982940       -0.29015521452959       -0.21710336983776
N           -3.42101686579488       -0.50608292530848       -0.34145282551350
C           -3.97678444610268        0.62901433159725        0.16744937313570
N           -5.29118610427393        0.78210909609401        0.22574155773623
H           -5.88480308760687        0.04915712432115       -0.12178603051335
H           -5.66906829762535        1.63055713791965        0.60964247015405
N           -3.12667110161664        1.58362435692326        0.61250885989402
C           -1.00178410352265       -1.08382088371314       -0.43010222314617
C           -1.17516011050026       -2.36646508429707       -0.99082643577617
N           -1.38162026254440       -3.35122044033308       -1.54261209514708
N            3.62038120491447        2.14787051925813       -0.90522295393787
H            4.57499979352317        1.88159144210562       -1.07309604489097
H            3.33869425993987        3.10775049589103       -1.01158785114797
