25
 energy: -38.713824705708 gnorm: 0.000929606454 xtb: 6.6.1 (8d0f1dd)
N            4.62878747899332        0.10212866114959       -0.00409788484142
C            3.28103220338657        0.02236937774407       -0.00321876858763
N            2.69567592874590        1.21679734209316       -0.00363960426462
C            1.40369225084625        1.46893880253197       -0.00289013653125
C            0.24816272123201        0.68643507896030       -0.00172720977223
C           -0.97213125820315        1.38666049433026       -0.00153526530370
C           -2.17906708836930        0.73222007042256       -0.00045101063879
C           -2.20725779099527       -0.73849056354730        0.00058582208813
C           -3.54520193749705       -1.12207767905857        0.00155675461258
C           -4.32635834126239        0.04132088055129        0.00115964728432
C           -3.51316456963683        1.16730537443945       -0.00004782545037
H           -3.84213167370071        2.19028313940553       -0.00058278017135
H           -5.40320616860021        0.05646014816040        0.00171580207941
H           -3.91678420011801       -2.13060167975375        0.00245316885535
C           -1.01385654888338       -1.43689625445784        0.00046044044185
C            0.21897725597101       -0.78396661304773       -0.00067402940582
C            1.36865728455887       -1.59072549736648       -0.00068220705777
C            2.70188224701473       -1.26752037632937       -0.00175915379879
H            3.40748661956812       -2.08925270375645       -0.00152987260731
H            1.16020075681025       -2.65555726061245        0.00028978392445
H           -1.03094497708990       -2.51926000520234        0.00124548500314
H           -0.94608482942408        2.46878099663291       -0.00229049757414
H            1.22347975566918        2.54349933041814       -0.00341894024274
H            5.04505826760497        1.01678057659608       -0.00577342416119
H            5.20893881537915       -0.71656454550344       -0.00502990248014
