27
 energy: -46.955552168800 gnorm: 0.000629900551 xtb: 6.6.1 (8d0f1dd)
N           -3.82870950982719       -2.81409338687560        0.04415417920159
C           -3.30963823970486       -1.78514242914344        0.03011677742288
C           -2.70590950566134       -0.53440055694408        0.01130018995911
C           -1.32014275775456       -0.25499695872726        0.01310322560747
C           -1.17551819510511        1.21644637811003       -0.00798464550178
N            0.01309736907662        1.81712372975953       -0.00690169219290
C            1.10990388914556        1.08466045288654        0.00643336048472
C            2.30126082728561        1.84122926339036        0.01816406847258
C            3.62151250528788        1.44934523697429        0.02316513440123
N            4.19277142893828        0.25631851905848        0.00557982415618
C            3.57546379762469       -0.91144423385166       -0.00178215880567
N            4.42632375193111       -1.97008766204947        0.00424413770902
H            4.09817503866993       -2.90993782009137       -0.11640159930648
H            5.40876430164125       -1.77493449766351       -0.07145403850753
C            2.18977196134719       -1.21257029509697        0.01201731252442
C            1.08020013137572       -0.39395552487570        0.01494471625553
C           -0.19199987554248       -1.02204896813627        0.02324561718013
H           -0.24877929141047       -2.10288949892911        0.03413638847866
H            1.97349508231414       -2.27706265774874        0.01865137291294
H            4.36057424567629        2.24577028071983        0.03531923909362
H            2.11583073344159        2.90758381563172        0.02236946463541
C           -2.43513717619206        1.76941788617807       -0.02460984050375
C           -3.38162267399708        0.70719504593663       -0.01270344118482
N           -4.71639694288196        0.85865170157475       -0.02414068722122
H           -5.12565842873717        1.77513722772950       -0.03965502041111
H           -5.31455834309914        0.05090627740516       -0.01174005370092
H           -2.67842986714243        2.81386991597840       -0.04311666725933
