31
 energy: -64.241930481760 gnorm: 0.000910575270 xtb: 6.6.1 (8d0f1dd)
N            2.33563842263673        4.01339133968578        0.19475271004670
C            2.17112244315185        2.87945304673127        0.12263284953795
C            2.09778621427385        1.47350446910709       -0.00362312676489
C            3.30780539178858        0.82503140673218       -0.43975032187447
N            3.64909777321503       -0.41522102345655       -0.20637509340557
C            2.91625533603924       -1.42188326982252        0.25153641916275
N            3.64024326151619       -2.45142623889652        0.72726308925615
H            3.20144224384174       -3.31722686164621        0.99190748227948
H            4.64227476862590       -2.38817627287248        0.68141713557698
C            1.50124624689314       -1.55531619134924        0.16997951290459
C            1.04151635128650       -2.86653101266807        0.41767623349049
N            0.79039712243779       -3.94510705361750        0.72753531978245
C            0.54572794508615       -0.53003678598774       -0.01050567337797
C            0.84996925341949        0.89327358732638        0.20262898445463
N           -0.10041628304316        1.78761149161434        0.52868067113462
C           -1.35188001038877        1.44809836381977        0.42301954582977
C           -1.77943208226659        0.12196676578848       -0.10021814451112
C           -3.15495057117284        0.19744452234205       -0.18264084484245
C           -4.11250419426984       -0.71552195188094       -0.61048151739510
N           -4.96813543467500       -1.40523262628679       -0.94986250963939
C           -3.47906073505739        1.52932340568491        0.32002811947797
N           -2.40482455748303        2.23323120532742        0.67299432936924
N           -4.71135881205288        2.00953619040447        0.42804924608012
H           -5.50320727725217        1.45400329052515        0.14949465592943
H           -4.84092898990982        2.93889929831515        0.79157701905897
C           -0.79692538401218       -0.85799550127705       -0.28012661001242
C           -1.18885388853089       -2.12361790089760       -0.76690835548151
N           -1.56439007980151       -3.08825655888200       -1.26200906466906
N            4.22408240095470        1.57714231863353       -1.07160707882461
H            4.08823180392420        2.56746961665083       -1.18481281260473
H            5.10665792052493        1.15967686965236       -1.31139593246845
