20
 energy: -36.076934063213 gnorm: 0.000538437384 xtb: 6.6.1 (8d0f1dd)
C            3.81292056308372       -0.03395773038669       -0.13157831968909
C            3.09123290755069       -1.06845445256389        0.38222007257419
C            1.71092890735013       -0.69502332861259        0.34145699713547
C            1.66828004823436        0.70216543516993       -0.19775389073890
C            2.94592905833010        1.05282444478238       -0.51220359003452
H            3.26771815138188        1.97486670039867       -0.95494730149876
N            0.52418895407886        1.40353611575133       -0.25656287071356
C           -0.57986890537173        0.78059962912456       -0.01507540311215
N           -1.65771362225513        1.40104724711804        0.46642455983771
C           -2.88559143773006        0.99524410696208        0.53062673332240
N           -3.51481885476586        0.05065675603966       -0.17802769239141
C           -2.85977004075815       -0.94658131974044       -0.70129283013520
N           -1.67496569659017       -1.39416770791338       -0.31070682507344
C           -0.63726904139946       -0.73746428963336        0.06973860368533
C            0.55791366965277       -1.39806981481147        0.48366015938564
H            0.52842298665486       -2.45601693570349        0.70467262524799
H           -3.39661336571714       -1.59278006961991       -1.38652603855682
H           -3.53175146670282        1.58099716690023        1.17775118677528
H            3.46445445994507       -2.00375561686053        0.75318108835140
H            4.88163268642810       -0.01175399910095       -0.25242739277150
