27
 energy: -51.744032382288 gnorm: 0.000889138732 xtb: 6.6.1 (8d0f1dd)
N            4.27827608629919        2.39839198980939        0.94955212444686
C            3.58901045532564        1.52276195149563        0.66125018049130
C            2.82908429012205        0.41298955131850        0.30450020520836
C            1.45021441809083        0.28176335246719        0.22992318728411
C            1.16998652405232       -1.10698907101786       -0.24331563212043
C            2.38022611644294       -1.74093197397330       -0.47293104956044
C            3.39861274044942       -0.85173995008182       -0.10138936495328
N            4.71649081069820       -1.07992583050717       -0.14467916014349
H            5.07247456252746       -1.96572552254654       -0.45801857399227
H            5.35915319277493       -0.35578100086454        0.12954708263644
H            2.51584594213002       -2.73570959543401       -0.84914427444887
N           -0.07415543771547       -1.48713043822497       -0.41064639900727
C           -1.05795534713828       -0.62513171963082       -0.20279652664510
C           -2.32417249835130       -1.16638659559562        0.10950885586879
C           -2.34594952876139       -2.56306223140632        0.33785355346130
N           -2.40928963925895       -3.69424395675790        0.51900562532268
C           -3.55290722990219       -0.51068720675329        0.30274444975957
C           -3.85512838983802        0.81094340851592        0.13281593739851
C           -2.92735137014369        1.84772144412317       -0.17849351405182
N           -1.62811742871229        1.80364208520231       -0.03169918329160
C           -0.76184883765131        0.81722843224388        0.00734616415802
N            0.48393926321775        1.17462785133445        0.29737020007743
N           -3.41818997173679        3.05012563289722       -0.55000694294852
H           -4.40306858653522        3.24153867926146       -0.52251949299268
H           -2.76755481824491        3.81042884945874       -0.64962922906187
H           -4.88036362159895        1.11850976773526        0.28795076591451
H           -4.36869144854199       -1.16400652086813        0.59108789098880
