25
 energy: -43.505409771865 gnorm: 0.000533785192 xtb: 6.6.1 (8d0f1dd)
N            3.84022502421118        2.51564534737499        0.00328292629384
C            3.17012191981952        1.57894635504851        0.00342805015659
C            2.41446264656655        0.41172022327003        0.00266342910996
C            1.01915547328958        0.27820667083750        0.00170716177981
C            0.72403069185067       -1.17345897036468        0.00157274653667
C            1.92510679951954       -1.85759583416716        0.00240115919200
C            2.96736000329320       -0.90472468897604        0.00305043961505
N            4.28194754699070       -1.16953720634350        0.00384502653742
H            4.61499785524976       -2.11691692160510        0.00453362904484
H            4.94518348060960       -0.41334156425601        0.00458771377845
H            2.05355223792156       -2.92215327628891        0.00255256122204
N           -0.51140725913748       -1.65362918560439        0.00078243289638
C           -1.53802979343029       -0.81342185039785        0.00012640522381
C           -2.78577125433327       -1.45852129217768       -0.00093077403890
C           -4.06550541245576       -0.93588543231584       -0.00182606882562
C           -4.43609758907561        0.40133921450211       -0.00171444386783
C           -3.58841344581017        1.51047035991077       -0.00075394868318
N           -2.28359648956304        1.60648973555062        0.00001596881289
C           -1.35139458697092        0.66269231706147        0.00036534177886
C           -0.03626667844736        1.15806180709478        0.00110989061875
H            0.10545216594569        2.22889754863046        0.00124961891769
H           -4.07233298756156        2.48447391359460       -0.00069057081321
H           -5.49683830266916        0.61639707767461       -0.00244163321540
H           -4.87273267802430       -1.65781813508868       -0.00264025647717
H           -2.69551464198862       -2.53799435096466       -0.00109497729375
