34
 energy: -56.197443381468 gnorm: 0.000777420917 xtb: 6.6.1 (8d0f1dd)
N            4.54277671247044        0.10945365503730       -1.26622053313715
C            3.45392097917022        0.09733247786663       -0.46026751177067
N            3.07239170853488        1.28536941726382        0.00039625281316
C            1.84907406219413        1.56859566900852        0.40894329328039
N            1.75538962234252        2.77972493535599        1.00962612708251
H            2.60882296597755        3.28453726810192        1.17088003818128
H            0.91026273366504        3.06187742231830        1.46955675210129
C            0.63947530665599        0.83449937855750        0.17748845260676
C           -0.54105458879178        1.55713534734031        0.07124859021649
C           -1.76487363320635        0.92544503000806       -0.04576831382043
C           -1.82372629282675       -0.52825496889228        0.00103091302427
C           -3.17905860158589       -0.88634842063826       -0.13170871193263
N           -3.69229362002936       -2.20389466312531       -0.14303261919014
H           -3.45065387349029       -2.71140354253513        0.70253250949177
H           -4.70134529822078       -2.18679715889415       -0.24251668445402
C           -3.92491604303280        0.28403059882919       -0.27668025986624
C           -3.07349690627665        1.39289003601656       -0.24141231402928
N           -3.47285782031140        2.73235661795248       -0.28749721054640
H           -4.36134545550423        2.86158751321636       -0.75210091617005
H           -2.76441851113232        3.34560399958414       -0.66619500591544
H           -4.99361721882711        0.32618439447730       -0.40827742370747
C           -0.65762162282526       -1.27993190984489        0.06888900325073
N           -0.77350642609369       -2.66244329039536       -0.00952311435599
H            0.01593619233470       -3.13421777639760       -0.42726578646138
H           -1.65902662891595       -2.93533463740123       -0.41589621145013
C            0.60355015793371       -0.63488083958095        0.16614518627545
C            1.78996562960425       -1.38620676028245        0.33706993214188
N            3.01458741537566       -1.08592207424870       -0.09544597645738
N            1.73539294776877       -2.65288534526675        0.85963347875156
H            2.63393904824927       -3.05421187588676        1.07402763369948
H            0.96541402015556       -2.87844636247409        1.46715603333390
H           -0.49788232273665        2.63739958722059        0.02062434732418
H            5.00684210042618       -0.76136525039614       -1.45071485603347
H            5.04665084054788        0.97188208390565       -1.36589409357658
