26
 energy: -48.012036890245 gnorm: 0.000580086239 xtb: 6.6.1 (8d0f1dd)
N           -1.96235856478978       -2.73631006136711       -1.05163824945313
C           -1.74817728609113       -1.71717211365099       -0.56561838734013
C           -1.61993515624197       -0.38019139123383       -0.11245854803493
C           -2.85290417263928        0.26915624317190        0.06820249432866
C           -3.03052050532582        1.63873315353251        0.39199612696590
C           -2.11790525265453        2.65235161460294        0.34620551886438
C           -0.75737124719057        2.59345239337316        0.02561303075337
C            0.09576517996565        1.51013144646045       -0.09084499817796
N            1.37635998165718        1.89704331672009       -0.29191037170179
C            2.32233860633342        1.01186521809361       -0.25030257243587
C            2.08237092024047       -0.42625286794305        0.06074820403283
C            3.33251683722257       -0.98497748238903        0.14094208400478
C            4.22855279373135        0.07654462059781       -0.16066450704498
N            3.64554050497465        1.24175412509137       -0.38342657634374
H            5.30084334092057       -0.00243087293966       -0.21695898968677
H            3.59557312932371       -2.00079081437049        0.36021986858830
C            0.74717570689113       -0.84180501822586        0.18700063189925
C            0.52118174719725       -2.18306278644064        0.56593148137150
N            0.44379772007175       -3.25196949571425        0.97802982077856
C           -0.28299062555979        0.09656741621808        0.03354589415050
H           -0.24576329764395        3.54105265388907       -0.08312772994178
H           -2.49810818161805        3.64347984228907        0.55749826751132
H           -4.05036204775854        1.91105134578104        0.63630318414144
N           -3.98860764344253       -0.46380316104421       -0.03407485355113
H           -4.88550365716468       -0.01953931851670        0.03599186955623
H           -3.95048133270969       -1.43810976728533       -0.28049276133471
