31
 energy: -53.046291918080 gnorm: 0.000913743628 xtb: 6.6.1 (8d0f1dd)
N           -4.11493328495098       -0.00041869968351        1.33531168886884
C           -3.07028389226321       -0.00030639413410        0.47855317694843
N           -2.67024078752844        1.17837863029958        0.03242402634280
C           -1.46300567953294        1.45479072707382       -0.42962322301295
N           -1.39734168957748        2.60533732331466       -1.12787865571976
H           -0.52165088668075        2.91901690421036       -1.50857597294857
H           -2.25022450564566        3.10660629830974       -1.30225652896342
C           -0.24792416578477        0.73430289949221       -0.16375813780586
C            0.95590881656059        1.43455821240802       -0.01611176608852
N            1.01646110491916        2.83209096590330        0.01256580229717
H            0.25531200520364        3.28352685192287        0.50039682412882
H            1.91659129688720        3.15074894976558        0.34319128541683
C            2.15060491364857        0.72187368738111        0.12207979350641
C            2.15078876281111       -0.72119632092302        0.12210506298829
C            3.48844612717269       -1.07869454580470        0.32120734558052
N            4.27090082661128        0.00061617406670        0.42731306524943
C            3.48817071258446        1.07972366436241        0.32114766479818
H            3.92233607196819        2.06376443125005        0.37553921080414
H            3.92286211415910       -2.06262193070580        0.37564344002347
C            0.95627416842819       -1.43419680719265       -0.01602025434079
N            1.01718344667232       -2.83170549357650        0.01279518784040
H            0.25610341831754       -3.28329397941906        0.50059393910477
H            1.91736645482775       -3.15010799839013        0.34352018403795
C           -0.24774117673991       -0.73425987953796       -0.16373135106655
C           -1.46264115296907       -1.45507006398452       -0.42952981173396
N           -2.66995646617705       -1.17891021061848        0.03246446989277
N           -1.39668671610909       -2.60570114413098       -1.12762942295897
H           -2.24946229878010       -3.10712143135641       -1.30206898039095
H           -0.52093420748979       -2.91912804732884       -1.50840630038304
H           -4.59118810426131        0.86720133479064        1.50401532325397
H           -4.59097519228125       -0.86815211196422        1.50403920793040
