32
 energy: -48.731714205271 gnorm: 0.000380264553 xtb: 6.6.1 (8d0f1dd)
N            1.39178989154344        2.62993103179597       -1.15220291894452
C            1.68241107396810        1.49689672696976       -0.45812963292715
C            3.02110871401206        1.20794172702621       -0.27406654738798
C            3.55684314735169        0.09240490207513        0.36380985913682
C            2.93395002960164       -1.08418090886626        0.66239926349553
C            1.63847490719311       -1.53757578770636        0.29285453484782
N            1.49946114111600       -2.89503320759838        0.41313461829028
H            0.56180148037693       -3.26922981372141        0.44794530193766
H            2.20051412772247       -3.37191195420972        0.95554696622140
C            0.54267454600010       -0.75463315860599       -0.10855574730289
C           -0.70809382638843       -1.37260858222372       -0.41477951301658
N           -0.78433753619811       -2.70920300216302       -0.82459138431087
H           -1.72187170252736       -2.95713539769444       -1.10799079108635
H           -0.09223461577599       -2.97264301001718       -1.51250555129666
C           -1.88618663185471       -0.68275135387019       -0.18840635543161
C           -1.85719194650558        0.67879069965907        0.30625396906521
C           -3.16970986282506        1.06456860713042        0.54166106023461
C           -4.00434951804257       -0.01120429632217        0.19649879372257
C           -3.24283220341825       -1.06918838433197       -0.25777794165338
H           -3.62666941020617       -2.02453978040850       -0.57311678545393
H           -5.07865429527637       -0.00304421862645        0.27229643833140
H           -3.51644717710753        2.01681737464232        0.90565117206526
C           -0.63744042342056        1.37677406690732        0.30083202687555
N           -0.67274055414680        2.76644014506051        0.54515141793017
H            0.10642498427693        3.10046082339810        1.09722666977091
H           -1.55431442704004        3.03701647362146        0.95768281439488
C            0.54413207562385        0.71885891856550       -0.02124470238891
H            3.54569080992365       -1.83546868446975        1.14913914867032
H            4.60846937787903        0.15548238302157        0.61759231432830
H            3.72375980758857        1.96328037629584       -0.60467850657673
H            0.44309209304018        2.96783337200345       -1.15125778893262
H            2.13188708121586        3.27368050836302       -1.37088505250864
