27
 energy: -50.959726244974 gnorm: 0.000809449380 xtb: 6.6.1 (8d0f1dd)
N           -4.25589772313040       -2.26413963636536        1.28160703294942
C           -3.61000712663457       -1.41556953086084        0.84696171825533
C           -2.89509494852700       -0.35323924360740        0.30621373455332
C           -1.50524840205934       -0.21655294162813        0.15861510088416
C           -1.25430523579891        1.12608524876282       -0.44819292651778
C           -2.47161239227538        1.72406042555296       -0.66456350887221
C           -3.48232034811672        0.82275469171559       -0.23390853263124
N           -4.80139645583339        1.05161150854265       -0.28814905207682
H           -5.44161696179300        0.36817219818792        0.07936844985504
H           -5.15635765535815        1.92064667407464       -0.64515368248735
H           -2.64454958698588        2.70620580375729       -1.05904261780935
N           -0.02170219585635        1.61661157256432       -0.50790135589870
C            0.98358979513390        0.87367853388624       -0.07569538488291
N            2.15772931953487        1.45928966247473        0.00632798624142
C            3.33723201374412        0.94826131161761        0.27860988229055
N            4.24093490264074        1.80098537165507        0.80766109846995
H            5.20763451294683        1.52878451597033        0.81391930571726
H            3.99272223074290        2.77270950104028        0.86748850113006
N            3.81658674941001       -0.25791947535958       -0.03669883191331
C            3.08153744229687       -1.33449179844692       -0.23308872892239
N            3.76112537808500       -2.40407777502508       -0.70166241819050
H            3.31094025558357       -3.29107048258625       -0.83063831345136
H            4.74520457058771       -2.30818201658568       -0.87595414838991
C            1.70400943979774       -1.52247555533783        0.05169686357709
C            0.73601196592410       -0.55922026355332        0.26118435560688
N           -0.51267933718369       -0.99212303830047        0.48751832915383
H            1.33270145432804       -2.53849956864552       -0.01576425653852
