30
 energy: -50.107240568704 gnorm: 0.000753878712 xtb: 6.6.1 (8d0f1dd)
N           -4.64855037666077       -1.62166682072669        0.54314084579142
C           -3.68434346213900       -1.02178024758348        0.34179524733720
C           -2.51824872620514       -0.27656335337701        0.09798942743859
C           -2.74116914892235        1.06654735451050       -0.34131705369638
C           -1.78944245513026        2.07154567852078       -0.36154124394044
C           -0.44032120189570        2.00634937956856       -0.03219676087264
C            0.41297938413022        0.93378667815131        0.15660542854837
C            1.80658994422383        1.24424201583040        0.34916584174559
N            2.20837224000392        2.50013621440894        0.70418980618160
H            1.59569977302240        3.08848959956548        1.24130144241448
H            3.19337869197619        2.61383168398059        0.87321210720067
C            2.75456105933185        0.27790563420097        0.06169554445850
C            2.35236040874276       -1.05697309751788       -0.33056262299834
C            3.54072730311736       -1.73882129472182       -0.56136328023229
N            4.61155831152199       -0.94783837735481       -0.34313626828156
C            4.16690998027203        0.24349095158866        0.02980093218677
H            4.86045143522043        1.03644629975403        0.24976058442795
H            3.67547250833942       -2.76115677543769       -0.86400399159262
C            1.00489781047410       -1.41378736155296       -0.27659938451183
C            0.03519914985565       -0.47507604124901        0.01792426548904
C           -1.30264163690624       -0.95041889209409        0.27803738675693
N           -1.39194913133183       -2.21991061722822        0.73015620404506
H           -2.29244252094241       -2.63772997868873        0.89659321664340
H           -0.56177712650272       -2.74582252533370        0.93592214912475
H            0.74032093562671       -2.43893194905641       -0.49753050178459
H            0.03662265822908        2.97850795127932       -0.02521869978842
H           -2.15878522890558        3.05130417920850       -0.63895106851001
N           -4.00869155562187        1.38222994459809       -0.70769934252278
H           -4.24603199587406        2.33652061124879       -0.91061861874880
H           -4.75231968734908        0.71419169210681       -0.59739914980903
