30
 energy: -54.926503804292 gnorm: 0.000803700635 xtb: 6.6.1 (8d0f1dd)
N           -5.94085025079925       -0.48280222311447        0.00030263188281
C           -4.79966016177842       -0.33281298827083        0.00032698153479
C           -3.40396750821299       -0.14511522732686       -0.00122604896834
C           -2.61911757446262       -1.32899325571693       -0.00688041918861
N           -3.29247788467690       -2.50971809554114       -0.02581883276953
H           -2.78304498453089       -3.37347468975100        0.00155643582204
H           -4.29625505834390       -2.53430942768284        0.00396898008828
C           -1.23167199578326       -1.40885450924913       -0.00354326936656
C           -0.20958879815960       -0.45476081277386        0.00107850033251
N            1.00091723939852       -1.00811335932752        0.00388222161009
C            2.06391529658571       -0.22231052936943        0.00599547619189
C            1.97999740313795        1.25178204949045        0.00515424578892
N            3.20695780741641        1.81323051364463        0.00712085551853
C            4.06599651757961        0.79549937417932        0.00893530263873
N            5.38947745010613        0.97857678653474        0.01105927705709
H            5.75577397411249        1.91388502921752        0.01117602450543
H            6.00878028455230        0.18708777943560        0.01188723344529
C            3.42446645372665       -0.50482464256221        0.00824049727503
C            4.10914119505879       -1.71100096917838        0.00839230329843
N            4.74215085937161       -2.67339150488091        0.01134796526107
C            0.74072553738254        1.82710918370620        0.00292774327020
C           -0.41036346818266        1.00278877234358        0.00200817451098
C           -1.63530598612725        1.64786886548710        0.00197558911391
C           -2.96304997432265        1.19273625773865        0.00317410222139
N           -3.91808942979088        2.16031397344319        0.01798014491721
H           -3.65799735198313        3.12880486491526       -0.00975091084527
H           -4.89332741684568        1.91967181016085       -0.00640015794513
H           -1.55937560439076        2.73165435655622        0.00359962935647
H            0.63134320820242        2.90221547469913        0.00282198615558
H           -0.83208223874004       -2.41669603910702       -0.00633355591330
