28
 energy: -56.263657042982 gnorm: 0.000924404365 xtb: 6.6.1 (8d0f1dd)
N           -5.65912462965954       -0.66196142584841        0.12154304336426
C           -4.51352885152527       -0.57231217115688        0.07040676255340
C           -3.11430803545919       -0.46176057213646       -0.01567350744543
C           -2.60052090406893        0.83809284487000       -0.29755148210047
N           -1.37569008955869        1.26155628231437       -0.07029691855784
C           -0.22219665155876        0.65689809226371        0.03058764972126
C            0.02970602602162       -0.79060334589585       -0.14035123858282
N            1.26566523238736       -1.26009312245558       -0.29431125757581
C            2.29303624717929       -0.48413123903354       -0.07737284203722
C            3.67888492762362       -0.67142424222621       -0.22755945246306
C            4.34696783778696       -1.83136448877110       -0.62232957257005
N            4.90285175844228       -2.78079772676681       -0.95263868708301
C            4.25574855173583        0.54588481470679        0.18828707726490
N            3.36388613615479        1.48892770417541        0.49900138459822
C            2.16098593161389        0.93567868860453        0.35495236667885
C            0.89203505596569        1.48699156018943        0.34614350937017
C            0.66999575032112        2.86992896115025        0.52809744296123
N            0.47126914935454        3.98778381491004        0.68240304889800
H            5.30808922672537        0.75586484316607        0.26308846516007
C           -0.96266059046411       -1.75052113716421        0.01626852341267
C           -2.35451892322747       -1.63640668717624        0.18011492945558
N           -3.01952912542799       -2.76990745519808        0.49531067284039
H           -4.02277272618531       -2.77194370485878        0.56894695378588
H           -2.52505419570705       -3.63966030364535        0.58118403532248
H           -0.56884879723795       -2.75772715038272        0.09253538849881
N           -3.44807195419097        1.79263992533246       -0.72375882736760
H           -4.43700244524552        1.62230390532012       -0.79095473441669
H           -3.09607567219560        2.73221950111212       -0.79957259848602
