30
 energy: -54.929327659756 gnorm: 0.000742505149 xtb: 6.6.1 (8d0f1dd)
N            4.31328604020167        2.32383081785658       -0.92598259322070
C            3.72722109061304        1.38278946397030       -0.61065691011108
C            3.08450173217545        0.21567807313576       -0.22040619551302
C            1.71099962305777       -0.04454570687574       -0.14614882834397
C            1.55308831494801       -1.43686300730752        0.31960446408833
C            2.81820333562485       -1.97050677756044        0.51122671060235
C            3.76438195430045       -0.97818002515363        0.18878807424242
N            5.09849211547307       -1.09536231327170        0.24434246789176
H            5.52941864712461       -1.95733970726458        0.52758924896938
H            5.67805765289328       -0.31335441648046       -0.01018715212362
H            3.05152790134410       -2.96426578586895        0.84234483704116
C            0.27990910480914       -1.97695102302160        0.41632842173291
C           -0.84338332354021       -1.22465177424759        0.08869636147323
N           -1.96960601622347       -1.90186267133275       -0.07706623197823
C           -3.19114916332510       -1.46706455844693       -0.29433889886915
N           -3.75571785584487       -0.31313608581458        0.07129244865790
C           -3.12736255310630        0.81751685074689        0.28225661995393
N           -3.88692962205441        1.80578737188812        0.80483275572148
H           -3.53752212449467        2.74607867343628        0.86996419559126
H           -4.86765638503141        1.62625280665892        0.92939715157182
C           -1.75661032209564        1.12952460232114       -0.03601494967210
C           -1.48735848855894        2.51134141607980       -0.10989277663805
N           -1.35376537313130        3.65222588637042       -0.17031480788809
C           -0.68304090415838        0.23758569434906       -0.16137530586079
C            0.60317271842381        0.74619731018104       -0.36791985611889
H            0.72888923902438        1.78680177072561       -0.63382205825157
N           -4.04252972879430       -2.36269069886363       -0.84612059505488
H           -5.02590646206328       -2.16012752979294       -0.82508302759011
H           -3.72947301485913       -3.31180441902271       -0.94635769683199
H            0.13739548416805       -3.01981485349423        0.65397535562825
