26
 energy: -47.235634024254 gnorm: 0.000459019238 xtb: 6.6.1 (8d0f1dd)
N            3.81538294652472        2.66555341759349        0.86040012424927
C            3.26560395495118        1.69184407642983        0.58308981962489
C            2.64538376044359        0.49632860954040        0.23969185700402
C            1.26790521907674        0.21831351696492        0.19845504719295
C            1.12586695001704       -1.19921933200870       -0.22625920968074
C            2.38645261039125       -1.70746989885361       -0.45129002134263
C            3.32708274686131       -0.68671666013305       -0.15793161861536
N            4.65921423265653       -0.80153546701226       -0.24855882444079
H            5.24669797508898       -0.01986603756761       -0.01259467197862
H            5.08026859901166       -1.66714970816584       -0.53536582398041
H            2.62834356086267       -2.69827643256589       -0.78260119640417
N           -0.05420198503646       -1.80356017258474       -0.29555166921573
C           -1.14778820623163       -1.09854833452819       -0.07610792933111
C           -2.31010587354115       -1.82296947406221        0.22906736928310
C           -3.56800602578786       -1.32759437304548        0.55002832760805
N           -4.09402916879445       -0.14712238414435        0.32175461851443
C           -3.42846560598207        0.89987795592949       -0.16786678696155
N           -4.18778976379502        1.85984343641373       -0.73621158228390
H           -3.76995707527143        2.75119322907894       -0.93616415922920
H           -5.18677520069120        1.77636610079147       -0.67402528710967
N           -2.14542469987022        1.18856700811563       -0.02103877302156
C           -1.11490064981497        0.38469291299143        0.08958837101705
C            0.13659647596301        0.97960325708584        0.34361162860445
H            0.17579427455763        2.04019116235259        0.54409962999599
H           -4.27017645594959       -2.02066113271265        1.00425605422797
H           -2.15316075513934       -2.88797741140460        0.34252506847435
