32
 energy: -63.966792794021 gnorm: 0.000757017378 xtb: 6.6.1 (8d0f1dd)
N           -6.28640161083151       -0.02072139610926        0.26813752152469
C           -5.14315730470382       -0.09790580238527        0.16427204755576
C           -3.74735216654788       -0.19043784956088        0.02473335105389
C           -3.06359579153988        1.02325449440808       -0.30775380750568
N           -1.78445356500286        1.28276931398152       -0.18916805171834
C           -0.72136800178711        0.51616595082612       -0.05875643251952
C           -0.68595285117414       -0.95690842899814       -0.14803807567522
N            0.47065554841161       -1.63017034124651       -0.26907076528617
C            1.60100751455948       -0.98273426339287       -0.15988173169648
C            2.91397986081628       -1.47933806749618       -0.24969657502897
C            3.32134453383134       -2.78690562335218       -0.50834743611606
N            3.71504761556630       -3.84739423723560       -0.71565609531147
C            3.79777902227426       -0.39766921612343       -0.01215500049285
N            5.12895061784436       -0.46063647164719       -0.00684448989234
H            5.67313314300222        0.36884635653108        0.16619550807702
H            5.59501364861594       -1.33480238670494       -0.18641082701900
C            3.03665513505373        0.80122141112899        0.21676597902757
C            3.62583693585393        2.04044273001577        0.46306708357212
N            4.18943226085179        3.02258186289881        0.66448763656945
C            1.68985848613156        0.46668682912711        0.12803426310147
C            0.50091719197934        1.19228252143747        0.15862097828006
C            0.48390670918233        2.59341427464638        0.32979080871767
N            0.45955520544977        3.73161754515004        0.46660398466780
C           -1.79664125738428       -1.76479699900238        0.00745649202661
C           -3.16104679844234       -1.45686462797915        0.19567745029921
N           -3.96753830094324       -2.49270955761502        0.51661974748171
H           -3.59067491393525       -3.41907038694111        0.60611302573072
H           -4.95781937516831       -2.35609131119789        0.62767451648156
H           -1.54885224185720       -2.81923532788870        0.05358597958702
N           -3.80207206428492        2.07631591455742       -0.71199629257852
H           -3.32804443918943        2.95594304913036       -0.82989083840598
H           -4.80695776472985        2.04507288423449       -0.70932109060630
