24
 energy: -42.982061526283 gnorm: 0.000822417528 xtb: 6.6.1 (8d0f1dd)
N            3.93205818540713        1.81785866880329       -0.37468486743852
C            3.11649707271766        0.77135035646960       -0.08638028087717
N            1.85859702892870        1.11414928887011        0.09615614813988
C            0.74110835612189        0.42541023709080        0.10109512689202
N           -0.34018060693583        1.15821994907581        0.39199305913513
C           -1.51947253074810        0.59037075958345        0.34533319101356
N           -2.70560639247157        1.16503872879055        0.46702399468964
C           -3.60661185200230        0.21283078538956        0.11820361477852
N           -4.91502571068066        0.49704481623594        0.15451815410110
H           -5.59861325768872       -0.17060079586018       -0.15174219404224
H           -5.19498498750476        1.41587391048341        0.44825249915647
C           -3.02002612877546       -1.00959434405698       -0.29401965665677
C           -1.66774188437552       -0.83304109856502       -0.10069036715286
N           -0.59815803312392       -1.57918063604514       -0.29402145000385
C            0.59955343347119       -1.03194662665473       -0.13312955827113
C            1.66039749275094       -1.93499218908189        0.05927592757558
C            3.01627164693642       -1.69823597145449        0.19445906292206
C            3.69909645195165       -0.50394686066783        0.08152583614258
H            4.77767510531561       -0.53100782944058        0.16401661764670
H            3.62605182239062       -2.57438959961275        0.37948015918112
H            1.33025183302573       -2.96108450569552        0.16766566934175
H           -3.53800585449453       -1.87783414827614       -0.64800460245442
H            3.52331361799110        2.73573849948661       -0.33951773122423
H            4.92967193449242        1.72477806323228       -0.31141798929494
