36
 energy: -60.431114669810 gnorm: 0.000539999407 xtb: 6.6.1 (8d0f1dd)
N            5.03793759942977        1.89912728609462        0.32915892312178
C            4.06596892709582        1.28316785644981        0.22338925426586
C            2.90892983401563        0.51419497298273        0.09385662231082
C            3.06857464178146       -0.79174539173540       -0.46558217541480
N            2.29506569373515       -1.81122891564176       -0.23039049244202
C            1.05829331596696       -1.86110591617060        0.26533078959745
N            0.77675412967592       -3.11027733578128        0.76629320195936
H            1.59010296070446       -3.68528575063970        0.91994792526451
H            0.03125275704352       -3.18417536400438        1.43907847824117
C            0.04706775518218       -0.88529670190901        0.15965758969024
C           -1.31849244945173       -1.28111374921360        0.07078107797099
N           -1.69566928024154       -2.61196288867619       -0.01786498230061
H           -2.61244095073281       -2.71502882572253       -0.43199098036851
H           -1.00479559674659       -3.23326325547691       -0.41353919677734
C           -2.32142279977640       -0.32337417894217        0.01248777765042
C           -1.98144975007402        1.08621064828449       -0.07213707488922
C           -3.17847771222564        1.79665199169377       -0.28211153719012
N           -3.30691256188536        3.18069883130125       -0.36333605925793
H           -4.16777923608932        3.48019114175664       -0.79823076779165
H           -2.50055522216128        3.64517098271475       -0.75537720016747
C           -4.22940274192467        0.87535956416574       -0.27885430042284
C           -3.72384789293407       -0.41413507910144       -0.10200620347027
N           -4.48391695971212       -1.59776656387011       -0.07320869518390
H           -4.27548090194082       -2.17384428019197        0.73458761807152
H           -5.47548067947552       -1.39179759043295       -0.10179267749463
H           -5.27076287167487        1.12118589001120       -0.40191189014327
C           -0.66400060037796        1.47473778068555        0.04248749049985
C            0.36859916868501        0.54901654585449        0.18773869008903
C            1.66887237361304        1.08066569715423        0.45379376933038
N            1.73867954081274        2.30701353165905        1.02910030534716
H            0.90992096175352        2.77616567617942        1.34185160021767
H            2.63206491541427        2.75798628173153        1.13019777673075
H           -0.42942637897273        2.52778691976267       -0.04284934712677
N            4.17534200484118       -1.03437245261952       -1.20695873068967
H            4.91686819786603       -0.35540060598915       -1.22661006209614
H            4.37475423568180       -1.98567836405997       -1.46172548933054
