31
 energy: -59.439319070449 gnorm: 0.000780457291 xtb: 6.6.1 (8d0f1dd)
N           -1.63894207656374       -4.24683969015530       -0.11390460259911
C           -1.59867285184775       -3.09679214510119       -0.09627056766760
C           -1.64013118233507       -1.68993547464889       -0.08774269536540
C           -2.91316187279886       -1.14525868985918       -0.37586060113214
N           -3.34889667337584        0.06278824585303       -0.04503985958380
C           -2.66874760673108        1.12352520455759        0.30189150924700
N           -3.39806477634379        2.10403540812965        0.87057472445349
H           -3.00484197200283        3.01487024569007        1.03623292195775
H           -4.39127283135910        1.96755095970088        0.94221102575825
C           -1.26793802265461        1.37671536247851        0.04958971894859
C           -0.94297944075899        2.74879405954386        0.14608951264663
N           -0.83247285736406        3.87430916928372        0.35482979285460
C           -0.25243362522062        0.44206428649673       -0.13547513235992
C            1.05207756525490        0.92288576055464       -0.45028372809829
C            1.25576179453958        2.17026378602540       -1.07370528543338
N            1.47052183255030        3.11769584328341       -1.68575156315747
C            2.16215593026396        0.14227406339644       -0.16373668674711
C            1.98311962257279       -1.21418120054491        0.39744321680589
C            0.69944392893417       -1.75089666311419        0.47171139503336
C           -0.41242283318106       -1.00162761179962        0.12686198244382
H            0.57550312529872       -2.79359259065640        0.72628997252240
C            3.25734717802601       -1.68327227824341        0.60676812977456
C            4.12038494929121       -0.62582011422894        0.17620540307738
N            5.45481443880962       -0.63375939882758        0.19883349574836
H            5.94182967357513        0.17525653096540       -0.14667557296746
H            5.96630280843983       -1.43462260513013        0.52252808942961
N            3.45354916047194        0.44915983878208       -0.28756570068090
H            3.56875353130860       -2.63049496530332        0.99850343479054
N           -3.85456777352604       -1.93456790391074       -0.94188126122567
H           -3.68481802859504       -2.91693577612240       -1.07281587902318
H           -4.79395389967988       -1.58196817559500       -0.99458458215101
