30
 energy: -55.722777970530 gnorm: 0.000568886754 xtb: 6.6.1 (8d0f1dd)
N            2.94776043454828        3.09053976252866       -0.00230845312310
C            2.74743077402796        1.95911385649262       -0.00091127533704
C            2.60606234784516        0.54762572843885       -0.00064401407590
C            3.85379700350709       -0.12619864535394       -0.00008482483076
C            4.05009552788426       -1.51677668600318        0.00082812711262
C            3.11861140139080       -2.53053330137853        0.00125721021034
C            1.73729957545417       -2.44914684842605        0.00089481018705
C            0.87486904397334       -1.34810122070234        0.00012750032339
N           -0.40642137092392       -1.72281775858142        0.00012170697389
C           -1.35466251925519       -0.81318558761136       -0.00045323178234
C           -1.06973841626987        0.62944928651397       -0.00104804899031
C           -2.29917130428796        1.30659189997856       -0.00176112161676
C           -2.52050677752700        2.68114849385245       -0.00331404370090
N           -2.74618874161493        3.80967836083025       -0.00132139472950
C           -3.32984486662957        0.32639704945542       -0.00127448545455
N           -4.64228059291717        0.57966953793317       -0.00165795113442
H           -5.30222674638621       -0.17976311260555       -0.00142536484017
H           -4.97378997879160        1.52961570398178       -0.00222289114852
C           -2.74568005103919       -0.97664658533188       -0.00047017003867
C           -3.48284922749492       -2.15806523533963        0.00029961504108
N           -4.15018843620031       -3.09523884121495       -0.00074176852301
C            0.24766521412241        1.02810617591170       -0.00110800448249
C            1.27535498726447        0.06872116562735       -0.00053699598374
H            0.48912233752291        2.08194553695658       -0.00162141578901
H            1.19687289934742       -3.38713714133646        0.00128086391416
H            3.52449289652094       -3.53398839015540        0.00198724143301
H            5.08954326744746       -1.82285774873985        0.00124146393598
N            4.98093955937491        0.63140120659742       -0.00054923273402
H            5.88235663704268        0.19061840990559        0.00043583767492
H            4.93308003616359        1.63528206247614       -0.00066007569128
