33
 energy: -63.672752971110 gnorm: 0.000930737064 xtb: 6.6.1 (8d0f1dd)
N           -5.94763574676201       -0.11686424597504       -0.64263776771568
C           -4.82451431991951       -0.21088622412938       -0.41313860795115
C           -3.44662364945660       -0.34493342200455       -0.14570235846558
C           -2.94937616883841       -1.66270979025773       -0.15629962399551
C           -1.63274030731676       -2.05362956539742        0.13000605004394
C           -0.44638897020301       -1.34627874894404        0.22111052777233
N            0.61388988890036       -2.15168868778491        0.41423585657650
C            1.82557202187782       -1.65887572874539        0.33023161009060
C            2.08921581949059       -0.24604406622615       -0.03519750260568
C            3.45638226628656       -0.10069690399869       -0.16375196692779
C            4.21856473368479        1.01041700561719       -0.51210057691783
N            4.93185895766057        1.86988235214266       -0.79026935412894
C            4.05404007173851       -1.39004459834861        0.15667285235395
N            5.37585384351934       -1.59218014965432        0.14606290268054
H            5.76093786112329       -2.49116278094327        0.37645566823543
H            5.99470145103334       -0.83446483816152       -0.09167228910993
C            3.05234553983705       -2.31199442200105        0.45046856320531
H            3.19398423772508       -3.34154505501199        0.71117815134317
C            0.98914269659293        0.61465292051676       -0.13737404183939
C            1.20989266181946        1.94281669699032       -0.56439065287424
N            1.43368181447317        2.96913670137661       -1.02664035832094
C           -0.30436884850970        0.10829149729088        0.08979153085160
C           -1.36786001643275        1.02280103779926        0.29447015168535
C           -0.98826422918582        2.31439876977769        0.73434614971998
N           -0.78804832819280        3.33596857996488        1.22217775813890
C           -2.76586671894629        0.85573716385723        0.18633047685610
N           -3.53963657291931        1.94988605546924        0.37922121281038
H           -3.11735823314735        2.84634769667252        0.55208914209370
H           -4.53758170754603        1.89244566074171        0.27172543044594
H           -1.48008496926582       -3.12276703635459        0.22016030758903
N           -3.82330333967175       -2.66432811950733       -0.41806184521508
H           -3.50583853614272       -3.61633827527802       -0.43085975068749
H           -4.78887971510881       -2.46857686709027       -0.61692910693731
