34
 energy: -56.988125740621 gnorm: 0.000634423797 xtb: 6.6.1 (8d0f1dd)
N           -5.08108983560650       -1.56796978917601       -0.79332651503800
C           -4.13171707967470       -0.98404691989638       -0.49140423110149
C           -2.98604877146646       -0.26119180718347       -0.13209902084779
C           -3.23995973968337        1.04130734710468        0.43916183073739
C           -2.33074020828380        2.06409028862084        0.51695589864191
C           -0.97436902951633        2.06603804853780        0.15002219933963
C           -0.10376734885954        1.03140580767400       -0.09847133511107
C            1.28618638964865        1.38407596014089       -0.31053312100791
N            1.63944333092905        2.65697620551775       -0.68409907503049
H            2.58238981610786        2.74092453520689       -1.03155081629453
H            0.95438458760772        3.19312216091004       -1.19177134890697
C            2.25252364452977        0.44586940032183       -0.04335555237979
C            1.89975475608206       -0.92713619036676        0.26048104633659
C            3.11759693685545       -1.59000647613810        0.41361485645422
N            4.17235713146885       -0.74351788989761        0.25266339040779
C            3.67994798681041        0.45781166711374       -0.01676028610805
N            4.50318090307401        1.54625619188013       -0.25672088247796
H            5.47395782700274        1.29781514012557       -0.11423603488056
H            4.24996922607578        2.37777868241293        0.26097877743278
N            3.33696780878577       -2.93226639120421        0.62669794143681
H            4.28438226576568       -3.13874230988070        0.90441621086729
H            2.63278478352102       -3.40499231301374        1.17193617854748
C            0.56484906422598       -1.32140487427193        0.18452426553148
C           -0.43379653005922       -0.39484165527459       -0.03825083878812
C           -1.75963334476547       -0.88818285308421       -0.34300478793353
N           -1.80562805066848       -2.13473620637455       -0.87422121154610
H           -2.69276619740713       -2.53128304816761       -1.13647940294300
H           -0.96237541309928       -2.57771599399811       -1.19040866891921
H            0.32679161696819       -2.36743377910547        0.32096741382819
H           -0.53469962219132        3.05537164602829        0.17313424976435
H           -2.71431004398790        3.00842205886896        0.88450248811438
N           -4.51300683996643        1.25504860568852        0.88681242282101
H           -5.23466996351455        0.59934244589938        0.63757745448254
H           -4.79670688410948        2.19617723278194        1.09639908537097
