23
 energy: -44.056888489703 gnorm: 0.000790223587 xtb: 6.6.1 (8d0f1dd)
N           -3.77218260084516       -2.39061177488405        0.91236011048242
C           -3.11962190324504       -1.48642091646575        0.62662623363239
C           -2.37346791676398       -0.36494170173113        0.27654457731487
C           -0.97873540222098       -0.24223151290129        0.21501110523461
C           -0.68970172397465        1.16238080513359       -0.22449159022943
C           -1.88904980717620        1.79223491737646       -0.45207153510872
C           -2.93223178581454        0.88244173234968       -0.13169492751902
N           -4.23972768905352        1.13579429742479       -0.20914009040697
H           -4.57157453562167        2.03393817168021       -0.51526180147319
H           -4.90650568584545        0.42427227366553        0.04207094019811
H           -2.02587699830745        2.80183574824166       -0.78507202628708
N            0.54406877533612        1.65871058477677       -0.27332208748126
C            1.52258302562475        0.83302974121768       -0.00597767962670
N            2.65059607711918        1.24538728213915        0.52184274431774
C            3.78503454567674        0.61430546212690        0.68547665342287
N            4.30767074356252       -0.35419914775158       -0.04389980498119
C            3.53378640466131       -1.15429542337310       -0.75234043528333
N            2.27478853118108       -1.42956722801337       -0.52063057811971
C            1.32240533290906       -0.67775787436198       -0.04954161236114
C            0.04908475240281       -1.15597467202744        0.28641777052824
H           -0.12190836965040       -2.21063389830772        0.44521793395765
H            4.02764826368098       -1.78906414240302       -1.47956021443536
H            4.43922252296480        1.03848767988934        1.44051585832472
