30
 energy: -50.116927778397 gnorm: 0.000755278660 xtb: 6.6.1 (8d0f1dd)
N           -5.56492983079655       -0.07673835274878        0.14793657814327
C           -4.41671359924997       -0.04623726637284        0.05995874297799
C           -3.01251157380222       -0.01772750056886       -0.01031057995974
C           -2.41209934427206        1.27339620672365       -0.04062346440113
N           -3.27690631118510        2.33902357454633       -0.11590191206135
H           -4.25318425357087        2.18856464460421        0.07330915047668
H           -2.91549712353367        3.25833570127014        0.06640961822990
C           -1.06235756263063        1.56730852435729       -0.04194660900760
C            0.10996513282239        0.78692643106605       -0.02917026875555
C            1.31290890641951        1.47760408489660       -0.01306452747841
C            2.53860101085788        0.81809047442282       -0.00514706361434
C            2.55517802762939       -0.65490885916382       -0.01808580875199
N            3.81721266776445       -1.12481848324804       -0.01212096605992
C            4.59574102602070       -0.03432734182704        0.00404218901125
N            5.93761633339364       -0.14631445803896        0.04861155196732
H            6.33516588596817       -1.06189786687915       -0.06654361592006
H            6.51478197689664        0.66114244262850       -0.10197675498951
C            3.86355649509927        1.19158627823222        0.00883087451401
H            4.28778552587738        2.17648902884238        0.02138276324570
C            1.37603815937572       -1.35006654951178       -0.03756190284224
C            0.12969050693551       -0.68610741788814       -0.03910213843889
C           -0.98596206166288       -1.50496007937336       -0.04958595506153
C           -2.36985620684632       -1.26494701838162       -0.03273575849900
N           -3.16168814886548       -2.37836887508085       -0.07480093929634
H           -2.74884385976336       -3.28084680890582        0.07755698964556
H           -4.15400345667504       -2.28811134645979        0.06103330539429
H           -0.74861104591349       -2.56466993934357       -0.06615671821739
H            1.39839225989581       -2.42972641590030       -0.04793405494044
H            1.29904578381658        2.55934618891100       -0.00754858663441
H           -0.85982200510531        2.63438204709148       -0.05429751657613
