21
 energy: -35.801993099262 gnorm: 0.000751877458 xtb: 6.6.1 (8d0f1dd)
C           -3.64373000167633       -0.10536826702683       -0.00116224387168
C           -2.90370164265348       -1.29144216952386       -0.00296275925468
N           -1.61555050887133       -1.50188593665107       -0.00308938805996
C           -0.58636236852595       -0.67512961113705       -0.00227422084205
N            0.56852984867122       -1.32722226746153       -0.00232137114192
C            1.69589850284810       -0.65917864175636       -0.00220914725028
N            2.92212094092625       -1.17202914477408       -0.00231019452441
C            3.75697450011901       -0.11989123994599       -0.00234431727728
C            3.12062153856514        1.12456403207000       -0.00221232027461
C            1.75969712593913        0.83939353517504       -0.00211384052774
C            0.57119743843746        1.53072328213457       -0.00172132440982
C           -0.64193392404490        0.82747421105848       -0.00159559200356
C           -1.81549158429869        1.58060001116720       -0.00044063571454
C           -3.14651053463502        1.18644948037577        0.00005505754377
H           -3.87616760022913        1.98658427556155        0.00131513856672
H           -1.65677362097441        2.65525396550637        0.00034403602474
H            0.55546313343741        2.61504094375959       -0.00137298307328
H            3.59470202878458        2.08652682745883       -0.00220211542449
H            4.81944854285396       -0.29453594674390       -0.00246694374624
H           -3.47624478453100       -2.21553834378429       -0.00421938841864
H           -4.72050955634197       -0.21584829196242       -0.00076322842005
