22
 energy: -39.533119003621 gnorm: 0.000787324326 xtb: 6.6.1 (8d0f1dd)
N           -4.66586247752896       -0.06849975554701        0.09094913544388
C           -3.33213129852181        0.01152682614631        0.02969125053084
N           -2.57524522328577       -1.06018939138083        0.35358638161636
C           -1.32073203060513       -0.67837104918694        0.15964821164658
C           -1.26320068655695        0.75920295063172       -0.26111377974372
C           -2.57328194170688        1.16811550601549       -0.30809333215235
H           -2.96322549168334        2.13571518534189       -0.54965313593038
N           -0.10536111281397        1.40111940885712       -0.25107340039665
C            1.00608498830421        0.74381256061991        0.03046451355286
N            2.08887160701769        1.50604780659742        0.12165774126569
C            3.33933267741514        1.19750455942646        0.26737449779232
C            3.99723321733709       -0.02100302333178        0.04862353462658
C            3.39088274872271       -1.24138759168323       -0.20034212126502
C            2.04821009719697       -1.56123386026141       -0.09999053528807
C            0.95279888046609       -0.73114381186825        0.19047243212019
N           -0.21619397158069       -1.34483573247334        0.34845060492134
H            1.76928567249553       -2.58818407340247       -0.30179528750730
H            4.05016953544677       -2.06293204158866       -0.45371182148702
H            5.07732211574966        0.01658623620722        0.01198244228610
H            3.96632799588146        2.05966076617126        0.48185302849810
H           -5.24100740902403        0.73318769402162       -0.09178999004883
H           -5.08076572342580       -0.93677002011237        0.37968628011858
