23
 energy: -43.259989567687 gnorm: 0.000903133527 xtb: 6.6.1 (8d0f1dd)
N           -5.03686168350923       -0.30169827061531        0.12863078721099
C           -3.69219411713858       -0.23707526721881        0.12138299651574
C           -2.83042054466681       -1.21720102589745       -0.40676180246550
C           -1.53658126800322       -0.78813765811126       -0.18207467486868
C           -1.61076450636674        0.57397395805520        0.44168012505842
C           -2.93892968110612        0.88100204615770        0.58707697318130
H           -3.34854745821775        1.80513697889382        0.94474966112336
N           -0.52619679434257        1.33587315721573        0.45694913375432
C            0.60807947331137        0.92875453992052       -0.04674667117781
N            1.60680095457918        1.76673007862529       -0.20270041215522
C            2.84273927898077        1.55930653043670       -0.54593591581436
N            3.59729377478438        0.49710822815412       -0.35194738645602
C            3.09431241947873       -0.67906169936290        0.03652852174763
N            3.99495735025320       -1.53885905120299        0.54394259841505
H            3.69610824847641       -2.46186167229285        0.80230749073234
H            4.95670717805227       -1.25962040088175        0.61118723401572
N            1.86459476181313       -1.17735779693812       -0.04647543645573
C            0.73268102084777       -0.56354839924622       -0.33924510838633
N           -0.35563713395108       -1.25827091442435       -0.50136619022497
H            3.36974420607935        2.43296919246533       -0.91672059779256
H           -3.12630767358822       -2.13973804636117       -0.86560645184985
H           -5.57997597877343        0.46169877166059        0.48919320740397
H           -5.50932521079296       -1.09641192933151       -0.26228090001181
