26
 energy: -47.219930200969 gnorm: 0.000566140191 xtb: 6.6.1 (8d0f1dd)
N           -3.74666237035247       -2.70785257271815       -0.80092004191813
C           -3.18941056027360       -1.73273436050605       -0.54612369032386
C           -2.58343665254661       -0.52389891586721       -0.22262228250209
C           -1.22113993561898       -0.22370715594230       -0.13051834519160
C           -1.10999596881108        1.22663868672132        0.20438704765003
C           -2.38655758622443        1.73084552628296        0.33628256849777
C           -3.29410484708049        0.67451653029863        0.09658442754270
N           -4.63045579461729        0.76409034872674        0.12738071617801
H           -5.19051061285776       -0.03989630736399       -0.10052741986144
H           -5.08041302468859        1.64137405505191        0.31936552886574
H           -2.65528277645293        2.74505126591901        0.55730887486579
N            0.06426401328644        1.83450600772846        0.16642584811717
C            1.14759140038672        1.11714269391264       -0.10989486010543
N            2.25030769728126        1.82718127532162       -0.25887537345728
C            3.48848509162002        1.45711792291096       -0.42418360279023
C            4.11149279400776        0.24165498633998       -0.17045335106350
C            3.48653816044731       -0.97461943579803        0.13286312573968
N            4.27441022425993       -2.02060096962875        0.49020998728589
H            3.87815075984999       -2.93541413797460        0.60617789345944
H            5.27398208518234       -1.92938524880032        0.47713463804016
C            2.10737109899950       -1.22405650642141        0.04180807370442
C            1.04633187261777       -0.36375440550077       -0.20727184196907
N           -0.15171227088503       -0.95561032246212       -0.30972606588713
H            1.79728214110943       -2.24674524488116        0.22889608916514
H            5.19396097200085        0.24150750355116       -0.17212408787447
H            4.13758576305987        2.28148269390214       -0.70802170416130
