20
 energy: -36.076240371535 gnorm: 0.000573478329 xtb: 6.6.1 (8d0f1dd)
C            3.57526195067627        0.02988944580904        0.16064677038843
C            2.88007071448299       -1.07937170208642        0.61659822754782
N            1.67081571087128       -1.42156328467441        0.22549774462920
C            0.64313693680418       -0.73153279856947       -0.12590979570734
C           -0.55699609858179       -1.35125411462597       -0.56083669220270
C           -1.70038630005819       -0.61759165955569       -0.44353386401463
N           -2.99350750494280       -0.99588577548463       -0.56942456769633
C           -3.70576196089019       -0.03328518415324       -0.01232670702370
C           -2.93669347654203        1.03381770505147        0.52079692417937
C           -1.63442962120013        0.73784653208767        0.19716071522429
N           -0.48798246053876        1.39880213792262        0.34210921402692
C            0.61311202019726        0.78435499744390        0.02217111607945
N            1.67660804914384        1.42874348080188       -0.40606097488215
C            2.92960557804518        1.08764602683578       -0.49486563675812
H            3.52811774908836        1.77745414784503       -1.08137369768361
H           -3.31264547255417        1.90909675248533        1.01005854383335
H           -4.77972288333131       -0.10803804596104        0.00894725626821
H           -0.56220544311437       -2.40389488029581       -0.80056852570895
H            3.39358002395955       -1.84860071480024        1.18168417807489
H            4.65343917598450        0.04113885752424        0.23493119902561
