33
 energy: -69.245715133643 gnorm: 0.000802987423 xtb: 6.6.1 (8d0f1dd)
N           -5.43529193546633       -1.40779550932942        0.82746394041326
C           -4.37295441812248       -1.06722044194361        0.55450434839113
C           -3.06662701628425       -0.64597386489359        0.21747295031500
C           -2.26824593435593       -1.62337767564446       -0.45608644983988
N           -2.91604727698517       -2.68220738568913       -0.98325959092083
H           -3.90980920047618       -2.78506421632118       -0.86384206662775
H           -2.39225239233770       -3.45307282924352       -1.36505714118331
C           -0.86909402433599       -1.59449186693152       -0.50100437365700
C           -0.27414237649808       -2.73558962848590       -1.08888872900938
N            0.11974414565567       -3.64359265352465       -1.67150978408361
C            0.03902574851860       -0.55682754116386       -0.11928077443600
C           -0.32293585607336        0.85101264829728       -0.23376074397482
C           -1.56360686291837        1.36743104515251        0.08738228620663
C           -1.72786096201984        2.77706269626635        0.15475315101614
N           -1.98966018694298        3.88036532891222        0.33093355344140
C           -2.74571821927356        0.67041920060380        0.55041205746543
N           -3.62998260853267        1.38049855454440        1.27614971014924
H           -4.50586565811272        0.96477957191335        1.54896693387320
H           -3.48672160470313        2.36115193813536        1.45367452904571
C            0.73743851253956        1.78296765781137       -0.56693251610250
C            0.47692316604444        3.03463005555640       -1.16615568626878
N            0.33236753995690        3.99789141880653       -1.77076208718450
C            2.03434594370111        1.42320885498598       -0.31394843235455
N            3.16199629154922        2.19200968452892       -0.40784176499427
C            4.14208978695924        1.44513514735842        0.01301311756318
C            3.72930642201420        0.11087072728803        0.40119298993656
C            4.57639219106904       -0.88807718380303        0.88065996102601
N            5.30241808361603       -1.68250276667824        1.28107792638622
C            2.36238786110659        0.08547686062068        0.18423454990360
C            1.35646225911488       -0.89937080633457        0.19198233514985
C            1.69588342482881       -2.21985103720463        0.56297584785622
N            1.98114505050883       -3.25541039330530        0.96434132039328
H            5.14983859625529        1.81784669971086        0.05055582270266
