32
 energy: -59.164640836703 gnorm: 0.000821539711 xtb: 6.6.1 (8d0f1dd)
N            5.98615509571172        0.77705989394279        0.01865719629676
C            4.84652663094637        0.61784270385702        0.00924451739625
C            3.45089035175840        0.42418298991034       -0.00087728661992
C            2.66455069799248        1.59868622275621       -0.00407892578221
N            3.32112768492051        2.78676520127501       -0.00302252771975
H            4.32527120038645        2.82293800962765        0.00083253404832
H            2.80174919331258        3.64511689572348       -0.00384978403363
C            1.26848685245255        1.66960519880611       -0.00780012542167
C            0.25967209856786        0.71432661356164       -0.00196215188862
N           -0.96050180507145        1.26941063831730        0.00200026066067
C           -2.02448004159580        0.50253619116378        0.01141613960922
C           -1.96431476858494       -0.97918019217026        0.01514996864975
C           -3.25604641899189       -1.46610404994849        0.02750109499362
C           -4.13132819843831       -0.35996652590412        0.03161204151333
N           -5.46929236504749       -0.40882530293677        0.04322775070973
H           -5.95125166499580       -1.29028138129942        0.05156006582337
H           -6.00122912514467        0.44514764537247        0.04616213488939
C           -3.37606637938149        0.85763555997567        0.02125874015323
C           -3.94262910914636        2.12722902956945        0.02252865916521
N           -4.47265942742343        3.14951094255798        0.02433397078997
H           -3.55456035221556       -2.49743490376115        0.03363341315311
C           -0.69701841453976       -1.56191441504865        0.00632966935728
C           -0.59635089541812       -2.96568146152398        0.00747880004337
N           -0.54197437453540       -4.11411102824550        0.00865498691051
C            0.46183047228535       -0.74094367746284       -0.00127081289881
C            1.69345083284640       -1.38167770988930       -0.00987311765219
C            3.01441719016406       -0.92137972642934       -0.00836520647745
N            3.97504621831641       -1.88192232242384       -0.01408884573793
H            4.94937463944917       -1.63695229707237       -0.00885537952124
H            3.71743113621578       -2.85174844101990       -0.01461675594624
H            1.62180121991432       -2.46592108542462       -0.01460662378364
H            0.86429882718984        2.67575143624367       -0.01099752017978
