29
 energy: -55.204786470483 gnorm: 0.000724492374 xtb: 6.6.1 (8d0f1dd)
N           -4.18652071829485       -2.18865332009675       -1.31139568549117
C           -3.58873962860426       -1.30681223001287       -0.87497947369335
C           -2.96701156876291       -0.18594364726621       -0.33559297185979
C           -1.61540501893279        0.08622226780166       -0.16528715785558
C           -1.50689683795571        1.45062142586786        0.42365311292355
C           -2.79522973742066        1.93210446197707        0.61760494260166
C           -3.69423428363005        0.95403761679602        0.17000578430756
N           -5.03100663445803        1.02570292676231        0.17186359655245
H           -5.57035663145848        0.25485967994226       -0.18559564507225
H           -5.50388880784532        1.83496808483936        0.53359271129535
H           -3.06614131613898        2.88949522371614        1.02052570665286
C           -0.24727704283968        2.00882021879077        0.51880741517288
C            0.86405315184073        1.27027155626592        0.09639775166247
N            2.00486742347654        1.91145338124246       -0.05881724262188
C            3.19736263662360        1.42968838993222       -0.34867109208357
N            4.05311629288753        2.28866997689503       -0.94230647759241
H            5.02465250424564        2.04077045972872       -0.99265255756587
H            3.77062452648985        3.24517761681452       -1.05813574588417
N            3.72654156664039        0.25966095012829        0.00900564090324
C            3.06163887425773       -0.84497082692540        0.26394274439100
N            3.79524028165218       -1.84859896471034        0.78614161066022
H            4.78277121580054       -1.70406984465491        0.89984681197220
H            3.40321863295367       -2.76839839796693        0.89228390581835
C            1.67806708820280       -1.11152800499199       -0.01587964737973
C            1.30068841868923       -2.47074731832986        0.01505055798283
N            1.09015242253624       -3.59968163238415        0.05296008235522
C            0.64579102785393       -0.17768189732096       -0.18206230270138
N           -0.56339682157777       -0.67162915220272       -0.39948917945834
H           -0.10003034953113        3.03947437636226        0.80587797100762
