26
 energy: -52.023491042802 gnorm: 0.000984131802 xtb: 6.6.1 (8d0f1dd)
N           -2.37817768957797       -3.35727552005742        0.38160002539896
C           -2.12750142911649       -2.24916360263364        0.20970696400426
C           -1.90271547805155       -0.87265384311855       -0.00225449992749
C           -3.07076156803147       -0.05505873049097       -0.03080894923853
N           -3.17882248870052        1.25748693048657       -0.14744078503868
C           -2.22349541580679        2.17267827537796       -0.06603527390271
N           -2.69242457428015        3.43791941039155       -0.10818651523753
H           -3.67532273044808        3.57503463445648       -0.26309805676955
H           -2.06916448892540        4.22409950528144       -0.11960440168371
C           -0.83492092927825        2.01264228132399        0.10567116779039
C           -0.05240811766139        0.87437620213332       -0.02828994249188
N            1.26815333100083        1.05979090718904        0.04675288911474
C            2.09743054032063        0.06778570554023        0.13563878603430
C            1.59064367785167       -1.32440812621155       -0.09097196417662
N            2.61007785899348       -2.13999013369417       -0.28589159606797
C            3.73043686222083       -1.42483062731041       -0.15061779926894
C            3.49899157801963       -0.05242296787875        0.02784215537190
C            4.44062121979998        0.96765078425302        0.17132493787065
N            5.21921601998149        1.80515181112921        0.28104668278354
H            4.68754979492922       -1.91029148859901       -0.21251169196424
N            0.31696637837128       -1.49660444222051       -0.27690416181518
C           -0.55110539448367       -0.50251983489377       -0.15872783185945
H           -0.27795144114149        2.90602631740981        0.35464200840209
N           -4.26026322722547       -0.68044507661288        0.05380733072727
H           -4.32187125062975       -1.68259811950154        0.10920356702596
H           -5.09235419943047       -0.11873296444861        0.01780228951862
