32
 energy: -63.968134731896 gnorm: 0.000811299258 xtb: 6.6.1 (8d0f1dd)
N            1.87447547156109        4.12822018699579       -0.06298888908155
C            1.90484982997803        2.97972296058374       -0.02492433097728
C            2.03404993060081        1.57516022211710        0.03784065120385
C            3.38089415443926        1.13410793322507        0.25393488713966
N            3.89471235821862       -0.05579142300433        0.02408775539716
C            3.29299906560144       -1.20345645152821       -0.22208394220240
N            4.11979165706252       -2.19021666781412       -0.61681961240922
H            5.10511582358269       -1.99795702942193       -0.66250091585701
H            3.78184202555387       -3.13081979494981       -0.73047613143685
C            1.91414075509729       -1.51927218169386       -0.04205860707270
C            1.60492344118764       -2.89950924653498       -0.03728773884001
N            1.45593922363028       -4.03783711094290       -0.05001218252150
C            0.80868119262217       -0.66057857661022        0.07378236361799
N           -0.33830674462216       -1.31488154814252        0.22838576406760
C           -1.47783314480113       -0.66000364718647        0.14570219987286
C           -1.54169855869921        0.78215158655392       -0.16127497492750
C           -2.89723653434207        1.14163855504106       -0.23818014582455
C           -3.43492744840642        2.39655578598634       -0.51196260097663
N           -3.91550477642719        3.41763688100053       -0.73652853958033
C           -3.66442143913958       -0.02460840442784        0.02667338867247
N           -4.99536907383742       -0.09349549925738        0.05263379241410
H           -5.55029886182077        0.72684924531585       -0.12835065164307
H           -5.45046281135879       -0.96890692319790        0.25417432840949
C           -2.78413364060118       -1.13101175336085        0.27077251770669
C           -3.23456057856448       -2.41515041365578        0.57049335757251
N           -3.68776121474929       -3.44319669942788        0.81638185773282
C           -0.36079508879840        1.48146478825031       -0.24076111643560
C            0.86200992448723        0.80912929092531       -0.06121693116361
H           -0.36610763795419        2.55173592788626       -0.39436442399764
N            4.28134423994544        2.04714206293017        0.66941498021201
H            4.03350632124135        3.01481560937582        0.78415653207296
H            5.24272176891258        1.76278882556964        0.74055194975529
