29
 energy: -51.190016919500 gnorm: 0.000539610723 xtb: 6.6.1 (8d0f1dd)
N           -5.58031861389958       -0.69237448635765       -0.09593659877767
C           -4.44919014436407       -0.48750531517415       -0.04818390365799
C           -3.06502677131708       -0.22421755733429       -0.00299581857153
C           -2.70372791658343        1.12874418075548       -0.00153994285376
N           -3.70137996822227        2.05094042157743       -0.01612398302200
H           -3.48788623829238        3.03039548866886       -0.05383611868379
H           -4.66382366286904        1.76440478652524       -0.05932624245763
C           -1.39233688384470        1.65835923907904        0.02392780574116
C           -0.14784918745341        1.07700772631510        0.02481772406526
C            0.14325537511104       -0.36645824513302        0.01725771899329
C           -0.83249010927765       -1.37971322085929        0.03688294285431
C           -2.21546541257760       -1.37231984216805        0.03535547545635
N           -2.83695714270186       -2.58331547780071        0.08824442306912
H           -3.83540258820501       -2.65507847050520        0.00470757890954
H           -2.28729388716821       -3.42107977339462        0.03706439984215
H           -0.37683099788000       -2.36311713285126        0.05253774815302
N            1.37664495590309       -0.84050076531698        0.00102458075434
C            2.40325082500665       -0.00008542889643       -0.00318303265768
C            2.23334490500710        1.46663961180479        0.02104431534191
C            3.53812427037943        2.04239735475497        0.01559049368147
C            4.44291920271182        1.02403312650844       -0.01299088653980
C            3.76752614194967       -0.25223700059774       -0.02632177899434
C            4.40177619474383       -1.49111725604823       -0.05908243864534
N            4.94787332996698       -2.50381279849250       -0.08741601456049
H            5.51438411331160        1.12256873765609       -0.02485550621165
H            3.75074146733485        3.09495364233079        0.03143507419551
C            0.97146759763842        1.96638516071882        0.03388306510567
H            0.78697600889928        3.03375304173383        0.04466636492783
H           -1.37984747620731        2.74529894620120        0.03594850424269
