29
 energy: -50.391660144218 gnorm: 0.000840523099 xtb: 6.6.1 (8d0f1dd)
N           -1.58266542333753       -3.65590691588233        0.08550775146951
C           -1.53852161962664       -2.50600253490032        0.03999813349306
C           -1.57210443989033       -1.09781535008235       -0.01262258783940
C           -2.88635929693982       -0.56943960158945       -0.10300812920649
N           -3.30538387031247        0.68226565857840        0.01339772597494
C           -2.58029171909605        1.78268265784857        0.06350017918195
N           -3.32345950649712        2.91371690006117        0.20446391349537
H           -4.30534977531603        2.80756986016439        0.38651838112028
H           -2.88003230008635        3.79338321088276        0.39350722295445
C           -1.18953979378812        1.95316531257260       -0.08001466749306
C           -0.15516649927249        1.03269457030708       -0.11423150798309
N            1.04670366825463        1.60989816165091       -0.23240928210498
C            2.13225179774680        0.86716741527247       -0.15217840893504
C            2.08428976769972       -0.60508909215805        0.08559788774667
C            3.38075135734356       -1.05510505023247        0.14828006870702
C            4.23172416412808        0.06972103077747       -0.04924672109298
N            5.57683902667848        0.01533514425417       -0.04387073761149
H            6.04877477756585       -0.86744591275805        0.03610340418797
H            6.11767293818342        0.83606053757102       -0.25013102263548
C            3.46408559055663        1.23568349674151       -0.23338974016062
H            3.84806087518149        2.22233338940909       -0.40226563454746
H            3.71348529722101       -2.06351186240500        0.30905062725888
C            0.83337874540406       -1.20400151949390        0.15128520403799
C           -0.31763225438022       -0.43520762062482        0.02075358875083
H            0.75376926592419       -2.27555216668163        0.27721962942800
H           -0.84807934534163        2.97933491708520       -0.13905296429422
N           -3.91136477885021       -1.44076153918835       -0.29993443287829
H           -4.84357808592758       -1.07259050641677       -0.23770930918007
H           -3.76239427892537       -2.43333525896337       -0.26111119974433
