33
 energy: -64.464627294029 gnorm: 0.000629563867 xtb: 6.6.1 (8d0f1dd)
N           -5.39394770813349       -0.90660304177522        0.98524967450620
C           -4.30870552133232       -0.74233041672942        0.64381471702476
C           -2.97375526934160       -0.54597569083152        0.23195581458688
C           -2.15414117411827       -1.66916325214467        0.25264678236080
C           -0.77824586263053       -1.71220662951379       -0.19204637245517
C           -0.34477861586261       -3.02557567844029       -0.50160917816340
N           -0.07593099647915       -4.10909630969642       -0.77015215956010
C            0.16459183024497       -0.69463221989079       -0.22346469444513
C            1.53978159226415       -1.10817060623458       -0.36904201761545
C            2.53881071802400       -0.24891017293301       -0.07785738370865
C            2.26981325757556        1.11619372397648        0.33580771599804
C            3.47004326417926        1.71868228453217        0.63152526150623
C            4.51836485305097        0.77360071400767        0.40258860250927
C            3.98898710535127       -0.41705053301205       -0.02530637679035
C            4.65781260990646       -1.59664613273424       -0.35062003072550
N            5.18909468708475       -2.58024952880667       -0.61799429612039
H            5.56410689517742        0.97667609285549        0.54615287045399
H            3.61200201181534        2.72760966878381        0.97077939277214
C            0.92891395088800        1.57255118495170        0.30648795463004
C            0.68686857114161        2.90603580069362        0.70004112656892
N            0.54712840681517        3.96287201791556        1.12513704056151
C           -0.11013369398183        0.71364504031475       -0.03521968312457
C           -1.38852488549665        1.29804444137421       -0.37670708768222
C           -1.32252210908212        2.58776640478789       -0.94674315363955
N           -1.33561507742756        3.59064310771271       -1.50852354912036
C           -2.66873400867497        0.76844380940116       -0.26477254947239
N           -3.72844986703160        1.53497898411687       -0.61119570026998
H           -4.66706754692752        1.20682575410150       -0.46174051145364
H           -3.58616925722255        2.49676222529045       -0.87106322304379
H            1.75078769580141       -2.13659899112621       -0.62527604175854
N           -2.66925958293640       -2.83602302904058        0.69609175330829
H           -3.63800305320699       -2.89020062754467        0.96425697680897
H           -2.12917747853433       -3.68415577386220        0.66516044175345
