27
 energy: -51.756191443741 gnorm: 0.000869528079 xtb: 6.6.1 (8d0f1dd)
N           -1.95769470873857       -3.73090999910649        0.03628488864199
C           -1.83815563994048       -2.58801466483834        0.01950014083981
C           -1.80555054312080       -1.16952578907705        0.00252001862669
C           -3.10010729064158       -0.59784403138539       -0.00976506300397
C           -3.40856795266794        0.77564293537816       -0.01763768808007
C           -2.56368115093281        1.85369836515054       -0.00913793816707
C           -1.16785330788205        1.88481487709030        0.00292411171784
C           -0.61522487658285        3.19508283268507        0.01312992203459
N           -0.26896248627359        4.28760152798394        0.02235044781656
C           -0.20854658452705        0.85071982600318        0.00277116248600
N            1.02882384264706        1.33697464398903        0.00672544241425
C            2.04240693115399        0.49718081209411        0.00569199094387
C            1.85751667407082       -0.97658717543278        0.00188215836026
N            3.06082569796648       -1.54272032967393       -0.00094274313281
C            3.90213944109071       -0.48063834394092        0.00193987299791
N            5.22148265306624       -0.63377502461864        0.00061152436959
H            5.80515329859618        0.18386548140462        0.00339998244921
H            5.61258242972729       -1.55886973236934       -0.00138667109286
N            3.33821599557064        0.75572875836484        0.00519346524197
C            0.57605471253105       -1.48080303277182       -0.00037417361427
C           -0.50910106608090       -0.59424703025305        0.00012062352106
H            0.41720003503568       -2.54906706891644       -0.00345413397125
H           -3.03656467609107        2.82870742080993       -0.01262324031380
H           -4.46833028129551        0.99958781245323       -0.02873903946984
N           -4.16507556121814       -1.43812288333931       -0.01627650730678
H           -4.04122425530542       -2.43564450732994       -0.00309412642780
H           -5.09754539245735       -1.06734555605351       -0.01323601868105
