24
 energy: -47.004176733922 gnorm: 0.000890567450 xtb: 6.6.1 (8d0f1dd)
N           -5.22859616955354       -0.02580785243746       -0.17676063356826
C           -3.88997330566251        0.02203489780031       -0.02492403961495
N           -3.12174622514811       -1.00430034839082       -0.44445436590831
C           -1.87563807307114       -0.68243067010734       -0.14269167080616
C           -1.82511130829992        0.68377838567609        0.46435032116517
C           -3.13314946650714        1.12032384256220        0.45596300151835
H           -3.50607834235572        2.07496539884772        0.76711092773234
N           -0.66076152654510        1.29164467623217        0.53807779448452
C            0.46129122272742        0.77081592708370        0.12596660469021
N            1.56407694287882        1.47954266301553        0.18204573829834
C            2.80168695079375        1.16034243855263       -0.13710407431156
N            3.60529335443181        2.19699803080842       -0.45253967381868
H            3.25174092745328        3.12934989558900       -0.33120918506137
H            4.59497962519038        2.03237375469182       -0.49624861666909
N            3.40665849511606       -0.02390912921305       -0.07059721879013
C            2.75381770565333       -1.17263729660134        0.06629809436508
N            3.53521948208214       -2.23713934691427        0.33138496574279
H            3.10943913046182       -3.14422268707241        0.38652736900956
H            4.52984089302023       -2.11792326324694        0.38499114591133
N            1.46510161592155       -1.48108435846044       -0.02481765023551
C            0.41986753097490       -0.70369166190052       -0.24027818632767
N           -0.74692860493525       -1.25153267391439       -0.43625810543935
H           -5.80256413523611        0.67607337834493        0.25362165887980
H           -5.63546211079098       -0.90988630194541       -0.42630049934662
