26
 energy: -48.020655868119 gnorm: 0.000810959227 xtb: 6.6.1 (8d0f1dd)
N            3.80692319912965        2.50395519702342       -0.66219492316524
C            3.22968390210583        1.53054059201455       -0.45130558049225
C            2.58362720524893        0.32621885767045       -0.19116485714256
C            1.21207310971131        0.06177191534189       -0.17519969496763
C            1.05074040050476       -1.38218600489468        0.13406655786330
N           -0.12752402381322       -1.98489075933286        0.11887815165653
C           -1.21463052280913       -1.27000710331025       -0.10250525981785
N           -2.28420819412111       -1.99288884555393       -0.38598536712013
C           -3.54876813516783       -1.72071547891652       -0.42922452132213
C           -4.22080457035412       -0.59445246128765        0.07718926709374
C           -3.64116324756605        0.62252017818960        0.34805837167382
C           -2.30745520322424        1.01116416423835        0.12643161285201
C           -2.09948917801846        2.40576981359708        0.29273351633764
N           -1.98225386446136        3.53876300273360        0.42659087011097
C           -1.17212779550154        0.22630897918207       -0.14123243997400
C            0.07869724709688        0.83787842036627       -0.29050323300530
H            0.15037494319131        1.90880909603304       -0.42802968012435
H           -4.29563912595879        1.41424726268441        0.69469910123986
H           -5.28789082490490       -0.68582505873643        0.22641476729534
H           -4.15674537842785       -2.52379515197545       -0.83593700957209
C            2.30678807506632       -1.92464268628198        0.32632693488373
C            3.25665864436770       -0.89928147847849        0.12581525084512
N            4.58501050538198       -1.02225493691103        0.21261783434641
H            5.00338595960393       -1.90849934873258        0.43466975129366
H            5.17691571862628       -0.22592371962551        0.04350798868839
H            2.52960280569246       -2.94501418123742        0.56732096262419
