30
 energy: -49.316628268958 gnorm: 0.000585737067 xtb: 6.6.1 (8d0f1dd)
N           -1.72481340259130       -2.57785871591304        0.93504028340760
C           -1.72215767055146       -1.44687885072221        0.20617739248033
N           -2.88728912346420       -1.17302452668333       -0.37541180425531
C           -3.27139957812418       -0.00043076837127       -0.79941204821363
N           -2.88744354810839        1.17234555487895       -0.37576384637938
C           -1.72232155159799        1.44649224851135        0.20570695594467
N           -1.72505733384323        2.57769331392179        0.93422690512665
H           -0.86648260415500        2.92675552752752        1.32646451201546
H           -2.58255361942734        3.09655995002767        1.00961863944400
C           -0.49302427382976        0.73481152528371        0.01764825007389
C            0.72453590950047        1.42926372241715       -0.01311798816501
N            0.76992454775913        2.83342215802154       -0.02664904330323
H            0.07654836236452        3.26580590804236       -0.62304667059906
H            1.69933726952653        3.15852170460217       -0.25579570750085
C            1.92846962792274        0.72395564048534       -0.04477949347271
C            1.92855380831518       -0.72404835163875       -0.04451370330190
C            3.26380822352799       -1.13865898897776       -0.11211105201635
C            4.06336842590960        0.00005315982300       -0.14141997136283
C            3.26367901417734        1.13868770619467       -0.11252503832090
H            3.62892516831124        2.15148095103764       -0.12367306178799
H            5.13914741616944        0.00010462512448       -0.18830660611890
H            3.62916301490659       -2.15141711394608       -0.12288961234820
C            0.72469891028083       -1.42947425921492       -0.01260660058392
N            0.77022676902650       -2.83363303902601       -0.02564698254668
H            1.69967693798325       -3.15871802434925       -0.25466385611178
H            0.07690846609266       -3.26628823827757       -0.62191687952837
C           -0.49293425904737       -0.73513817886202        0.01791028391891
H           -4.12545205684948       -0.00058692349781       -1.47041937343387
H           -2.58227992945061       -3.09674701112460        1.01061032019732
H           -0.86622925423368       -2.92670549159464        1.32744673504205
