23
 energy: -39.248406512124 gnorm: 0.000247626149 xtb: 6.6.1 (8d0f1dd)
N           -3.90910130506120       -1.59298310202810        0.28266372905744
C           -2.93114317180462       -0.67164472338119        0.07815962027252
C           -3.28404577928180        0.66522336678355       -0.00317280674310
C           -2.42214291952851        1.76029885984337       -0.17821925251818
N           -1.13548162366848        1.86062227195933       -0.13618031449847
C           -0.17788721868778        0.93043009109138       -0.04660253726246
N            1.01632117197718        1.44339181035442        0.11076172499849
C            2.08174544912629        0.64135057320239        0.11310736976201
C            3.43061991380482        0.89279133564848        0.20507415804289
C            4.05448354592441       -0.37682980609438        0.06633416090770
N            3.22155711383753       -1.38270458213825       -0.11736491565666
C            1.98026117138275       -0.82220624680117       -0.10293377993243
C            0.75361329405556       -1.37842844407900       -0.26749051991165
C           -0.40101423373166       -0.54560079778936       -0.16699237711284
C           -1.61276909552945       -1.18118431069867       -0.07072534264616
H           -1.56189071289753       -2.26740884998212       -0.06989749982890
H            0.63327205088270       -2.43968939711246       -0.44093215215996
H            5.11531744020375       -0.56241292517455        0.09790528311513
H            3.92310700529440        1.83186053721891        0.35448348698837
H           -2.91556419475872        2.71875490613009       -0.32568369345848
H           -4.33999219440760        0.89475725039746        0.06586807406969
H           -3.70523603971203       -2.57484723554888        0.24058805752225
H           -4.87073849561997       -1.30686441460131        0.31441140199283
