27
 energy: -51.744791161353 gnorm: 0.000336501962 xtb: 6.6.1 (8d0f1dd)
N           -4.83963790497375       -2.03438973262172       -0.00094772356048
C           -3.99675005424098       -1.25050747889901        0.00050002837158
C           -3.03904440032509       -0.24163634167196        0.00241518265426
C           -1.65475454530800       -0.34043312436674        0.00230523751986
C           -1.11366344189480        1.04911376102263        0.00459911542197
N            0.18839770444071        1.26902586555007        0.00391396928614
C            0.99634745356289        0.20144742910494        0.00158491467061
C            2.35974720281785        0.53662905768482        0.00017215718119
C            2.61603897587575        1.92893590911828        0.00097667072076
N            2.91250925708964        3.03859471058978        0.00158769193905
C            3.51756738162044       -0.29824332411526       -0.00231364251512
N            3.59643721665573       -1.62171669700841       -0.00048758764377
C            2.61182885561709       -2.49213884171481        0.00170053347337
C            1.23548482927967       -2.33549537466941        0.00134626424012
C            0.45840394675823       -1.17081315539721        0.00072728237825
N           -0.85849490627635       -1.39335695086104        0.00068317050600
H            0.64258277900265       -3.24108323014754        0.00213513931379
H            2.97704582955783       -3.51536074329099        0.00357104070183
N            4.72482117611158        0.30416563060147       -0.00638121591141
H            4.81588665668635        1.30520727865585       -0.00673159409343
H            5.53920291316299       -0.28456311911492       -0.00690708470323
C           -2.17949029377023        1.93078268109729        0.00632089042082
C           -3.35867375147042        1.16800841676009        0.00511751348620
N           -4.61068258102669        1.63246934344668        0.00606975117538
H           -5.38447682867030        0.98829665315210        0.00491223929527
H           -4.79098017688131        2.62139454518333        0.00790866652323
H           -2.12116042700150        3.00118369451172        0.00815038914768
