23
 energy: -44.046326076402 gnorm: 0.000766435162 xtb: 6.6.1 (8d0f1dd)
N           -2.04081867981289       -3.11498795918893       -0.60953453474853
C           -1.79103919498182       -2.01266758537393       -0.40569818745293
C           -1.56398249357383       -0.64080768760717       -0.14058509348412
C           -2.75452269964241        0.08281101302502        0.20808692810841
N           -3.82896712787850       -0.64109018555528        0.59268029488809
H           -4.71057128300068       -0.18527333169643        0.74769818918092
H           -3.79998704760955       -1.64663219096067        0.60014501085612
C           -2.90143103305789        1.45796012528342        0.05636793726493
C           -1.92539895188609        2.35326441984933       -0.38896917922147
N           -0.63415756805506        2.25658336275600       -0.37881673010795
C            0.15506683368341        1.23632500154951       -0.05335436332951
N            1.38898217597930        1.56084401591698        0.25219207346305
C            2.34528438732542        0.66968854568825        0.22025271823703
N            3.59961858519172        0.72527460833668        0.62965332021110
C            4.10654696805121       -0.47889596449616        0.29282204141599
N            3.26990395686891       -1.37215957787753       -0.21299846166702
C            2.09874645182430       -0.71904674570167       -0.28313094744059
C            0.79887694726585       -1.13178125988120       -0.37797340119095
C           -0.24204802535114       -0.19185302599354       -0.18760562306366
H            0.56283485142869       -2.18194714656878       -0.48048968446424
H            5.14510620453592       -0.70509949053391        0.45316625643104
H           -2.27962663089160        3.31868105971159       -0.74004297741593
H           -3.89848449691275        1.85373082531911        0.20006152163007
