33
 energy: -56.485416874153 gnorm: 0.000957178577 xtb: 6.6.1 (8d0f1dd)
N           -4.53900578503766       -0.12030303633887        1.30256321341802
C           -3.47124804171961       -0.09786049358893        0.47184590227390
N           -3.10114633813725       -1.28090611330644       -0.01536017731833
C           -1.88624475530548       -1.55891740904872       -0.44540622971881
N           -1.79986046589959       -2.73028141439741       -1.11154293437042
H           -0.92254823862400       -3.06323647483454       -1.46455659515904
H           -2.63389412608619       -3.28046085894694       -1.21627689295687
C           -0.66878589582239       -0.83324892265123       -0.19879262468866
C            0.50090731509972       -1.56548422289824       -0.07395403101080
C            1.72374094000989       -0.92996469076884        0.05227720295939
C            1.78377542646698        0.52135877895925       -0.00620099098326
C            3.14775990889091        0.82548215208205        0.14660414830154
N            3.73625969384363        2.09759845365348        0.17810589721988
H            4.73749194835288        1.99454035163586        0.29963840525748
H            3.54550492410055        2.63357461296031       -0.66210504550913
N            3.88623080105277       -0.28275901555872        0.30519323853235
C            3.04878611406744       -1.33638330317090        0.26428584046518
N            3.53480340748784       -2.63479622524801        0.33442858610758
H            2.92807606768430       -3.27516124276722        0.82723720588250
H            4.48417714460401       -2.65642223013226        0.67928385263432
C            0.62681282382217        1.28604237607974       -0.09119097584035
N            0.75888061681213        2.66129994484811       -0.02720926327940
H            1.64593055349967        2.93755986473427        0.37323419956935
H           -0.03242384434373        3.16080000255787        0.35275662817875
C           -0.63242721488781        0.63899994453249       -0.18993110215073
C           -1.82117277947183        1.39039518676140       -0.34379936373687
N           -3.03759615547474        1.08772684350692        0.10922924991660
N           -1.77293536010827        2.66109293125499       -0.86049023433161
H           -1.02889764018035        2.87715363593467       -1.50332412968385
H           -2.67768648324601        3.06222467520659       -1.05043493441213
H            0.45778180640260       -2.64551673629074       -0.01589521570745
H           -5.04018526988507       -0.98414496051915        1.40610110299229
H           -4.99273124046748        0.74843230835887        1.52028837994823
