25
 energy: -42.709681906257 gnorm: 0.000533156832 xtb: 6.6.1 (8d0f1dd)
N           -4.52483073215913        0.00006403179593       -0.50428323876769
C           -3.28420097299508       -0.06809016188767        0.00091826287172
N           -2.74158028064565        1.09129794047571        0.34726062869161
C           -1.45142539836373        1.33905539869269        0.45456776889842
C           -0.33347777366124        0.57169395255368        0.14017395862854
C            0.93017265819399        1.22046682800946        0.01449743865680
N            1.04127623246230        2.57350327690996       -0.02416026374793
H            1.95052691437122        2.95614660148430       -0.21290477673144
H            0.24512074537836        3.16124118064624       -0.18732222435877
C            2.08686968729264        0.44507281629361       -0.07610196449249
C            2.01708054570863       -1.00606122833929       -0.04436265851762
C            3.35018324540563       -1.42796189322570       -0.15713905851409
N            4.18377392876375       -0.38987527569437       -0.24438243180863
C            3.45154080690422        0.73018510591538       -0.19999391323938
H            3.93873043908376        1.68836449522231       -0.24894987132761
H            3.72346278942496       -2.43515076442808       -0.17837320584773
C            0.79598513543278       -1.64215163315063        0.06812229611073
C           -0.38608321486039       -0.90652408758276        0.12109630761499
C           -1.57206062537937       -1.64112542369062        0.29691890059298
N           -2.83392048782520       -1.31548760287113        0.20377949454952
H           -1.43737884142202       -2.70447834548491        0.48427722322016
H            0.74677805853811       -2.72183658615672        0.09636917541179
H           -1.27801797767555        2.35564882447924        0.79993602505013
H           -5.02571174539010       -0.85209805365562       -0.68326849833468
H           -4.97370227848224        0.89368447388890       -0.59530283760944
