39
 energy: -68.398414685945 gnorm: 0.000629335736 xtb: 6.6.1 (8d0f1dd)
N           -5.39798864032973       -2.07703401386598       -0.35332266338125
C           -4.47518327077458       -1.39136128161189       -0.24556481391707
C           -3.37297681628471       -0.54868176765199       -0.09376686615516
C           -3.60822673493797        0.71007959599099        0.53998550001073
N           -2.91895905375725        1.78990669772751        0.30654077550920
C           -1.72289235065942        1.93646850653716       -0.25478742322487
N           -1.56329989496669        3.18654616712750       -0.78675810241400
H           -2.41329521984222        3.71414136140586       -0.90264608468942
H           -0.82708605410277        3.32986895963502       -1.45741508656318
C           -0.62498041771813        1.04571110679885       -0.18570727455141
C            0.68826150173643        1.56389683138638       -0.12409045369943
N            0.95880361111469        2.91746963480670       -0.02056558203910
H            1.87053299083348        3.09099718356056        0.38178308313283
H            0.22669348496938        3.48009854815428        0.38835118296773
C            1.77690045938988        0.68949460899732       -0.10166924935541
C            1.56829033383324       -0.73992946462909       -0.01776567032399
C            2.81974061975633       -1.34837620590374        0.13167957167694
N            3.09079233170179       -2.71803824907887        0.26811553474318
H            2.70968645126324       -3.27915190169599       -0.48495577973451
H            4.08703553175110       -2.88468275907279        0.35495294182333
C            3.79598859688077       -0.32243506543942        0.13442452750077
C            5.16941895462022       -0.51968118451103        0.22340861244803
N            6.30910635906936       -0.68671496621624        0.27145573689664
C            3.15648873786158        0.92818047881366       -0.00602188476869
N            3.80315055287697        2.17137029931399       -0.01986053260349
H            3.55337601552312        2.74388745742888       -0.81776399432468
H            4.80944956303838        2.06222997313290        0.03346069946218
C            0.27152815863500       -1.26448304958000       -0.02788619606500
N            0.14103326463151       -2.64139615139428        0.17179994425995
H            0.96280506907453       -3.02220610606292        0.62327222560264
H           -0.70887031499078       -2.92220766905225        0.64129171831126
C           -0.83500359639042       -0.41391091787342       -0.19774506475721
C           -2.10331409713740       -1.00886244580141       -0.49862218882151
N           -2.09956718498608       -2.17445354397783       -1.18733018526022
H           -1.22903891480824       -2.60259963559694       -1.44870236988257
H           -2.96314792898772       -2.66945839350525       -1.33360020402751
N           -4.68917148930363        0.83647390361052        1.34027576816361
H           -5.37122795051445        0.09853388966264        1.37594788611820
H           -4.94046520676492        1.75474612613010        1.66170921323366
