30
 energy: -55.715193042412 gnorm: 0.000754320988 xtb: 6.6.1 (8d0f1dd)
N           -5.80352496908741       -0.62160546794647       -0.05110943148033
C           -4.67534193867588       -0.40090369131393       -0.03051012903854
C           -3.29264597263471       -0.12093703888008       -0.00644258505420
C           -2.94140881634762        1.23715920974891       -0.01120859072991
C           -1.63416125820834        1.77023587327649        0.01542596722390
C           -0.37462016895191        1.20958420796784        0.02232557861857
C            0.70292849846821        2.14007446479939        0.03716158357558
C            1.99676579870352        1.72006009402311        0.02403860341126
N            3.13642796294409        2.46846232332240        0.02706895887756
C            4.12747423893842        1.61017198706727        0.00295447754884
C            3.70850738140946        0.23790413748543       -0.01672610201623
C            4.55755883614891       -0.86684718579123       -0.04709678467474
N            5.28762360443871       -1.75447157656929       -0.07273765545656
C            2.31812541898765        0.29017480539673       -0.00237191166383
C            1.27516668449956       -0.64235743602775       -0.00390487013464
C            1.60030011036095       -2.01423631083623       -0.02044953906247
N            1.85562675030287       -3.13413940651138       -0.03394669538785
C           -0.07409972401033       -0.22601001750020        0.01098065153310
C           -1.03797290313564       -1.24053807283095        0.02246095756120
C           -2.42938840949933       -1.25153155575316        0.02147599285551
N           -3.02207192170358       -2.47286441102158        0.04612202474350
H           -4.02252432678678       -2.56481444682397        0.02944068730340
H           -2.45928586296144       -3.30433725207922        0.04819793298930
H           -0.60999248333001       -2.23810523763549        0.03122665710467
H            5.14955483511196        1.94661699255373       -0.00094150925555
H            0.48824482915482        3.19766538602190        0.05294328259293
H           -1.63058148582045        2.85577925315322        0.02418999239728
N           -3.94440281868849        2.14937713931175       -0.03991002768331
H           -3.74010814887537        3.13232642566811       -0.03870545831581
H           -4.90607078204820        1.85638735462630       -0.05616197288151
