30
 energy: -54.917918179020 gnorm: 0.000760177200 xtb: 6.6.1 (8d0f1dd)
N           -5.79965659642773       -0.72280037253501        0.52654545330775
C           -4.69388734172861       -0.46784052563670        0.33070768418297
C           -3.34511761771718       -0.16015090379472        0.09524360636365
C           -2.48843277999420       -1.25622334394130       -0.25983949178715
N           -1.18940718355015       -1.31531043937365       -0.19454848320020
C           -0.23830319115092       -0.40585341393757       -0.06338144671598
N            0.95489712447430       -0.91375867189113        0.16313315676740
C            2.01739713085751       -0.12310647949862        0.09720149288500
C            1.94324909173045        1.31033348139170       -0.27846227221076
C            3.25074161479110        1.81004038098939       -0.33498426124804
C            4.11632027510196        0.77763409050409       -0.00090601383042
N            5.45589423163658        0.81908680676053        0.07821871035820
H            5.95792403464071        1.66131177894662       -0.13830185138730
H            5.96564893394006       -0.01361809660407        0.31952146825556
C            3.35461393616652       -0.43147713602770        0.27740416992923
C            3.95200426125643       -1.63246679605084        0.64041820755608
N            4.52973347074766       -2.58387109890003        0.93706044519465
H            3.53578192623392        2.81414584342316       -0.58672867394684
C            0.69772321505223        1.86409785176495       -0.42374433006659
C           -0.44899645966302        1.06201210776194       -0.23289439810984
C           -1.66995625440656        1.69143010149993       -0.09797634606443
C           -2.95902174643038        1.18558347174839        0.17417390554482
N           -3.91790014703873        2.10581049206531        0.45626616329867
H           -4.84752556432837        1.80698818443667        0.69521155595901
H           -3.67270825637581        3.06952607139553        0.58837933177020
H           -1.62945442547817        2.77699291756257       -0.13873495278632
H            0.57379528098154        2.92116181353356       -0.62436803538783
N           -3.08397403767966       -2.40672802570691       -0.65520147796512
H           -2.48818494831023       -3.20887522275949       -0.76712598991516
H           -4.07721901923081       -2.53376981482682       -0.56563717615045
