23
 energy: -39.265438621971 gnorm: 0.000830485463 xtb: 6.6.1 (8d0f1dd)
N           -3.84690925191632       -1.70507294909421       -0.04513283514670
C           -2.90176352962621       -0.72473594553127       -0.00966663685520
C           -3.35754122001065        0.60378107084705       -0.00232700994601
C           -2.61477451154115        1.76303919335196       -0.00279916697828
C           -1.23725089789798        1.93454794000652       -0.00443935529997
C           -0.19012492608064        1.01434703571738       -0.00411065835844
C            1.11861490638367        1.54103985970557        0.00213792407049
C            2.17607950435201        0.67303008916304        0.00251888535884
N            3.51093810027754        0.82851953425364        0.01004671487929
C            3.96544112080152       -0.42463870152918        0.00727543585464
N            3.07105757539399       -1.42279013768754        0.00017435735760
C            1.89940183403459       -0.78688520438132       -0.00395181220967
N            0.68706200813708       -1.29161980644016       -0.01023854190828
C           -0.35253459562298       -0.44990272629831       -0.01063390539290
C           -1.56748578666784       -1.13543061537885       -0.01521858744641
H           -1.41341885431081       -2.20923241145334       -0.02255512376335
H            5.02127878937607       -0.63156117897563        0.01255123080302
H            1.26946541797395        2.61178143716430        0.00780324119616
H           -0.91272325001049        2.96993715139540       -0.00361243134354
H           -3.19012333473680        2.68064277000847        0.00049322642491
H           -4.43456067155697        0.72396388864332        0.00122882586905
H           -3.57140581966669       -2.66539293913797        0.05311012517797
H           -4.81661037218489       -1.47709427314888        0.07882220845677
