19
 energy: -40.373493438456 gnorm: 0.000831073444 xtb: 6.6.1 (8d0f1dd)
N           -4.52657815802562        0.00140291530840        0.02160653298017
C           -3.20711619041363        0.00044933699483        0.01721184923535
N           -2.50039105302638        0.92025906321263       -0.69334273705960
C           -1.24631601202665        0.61508620452546       -0.43926597072459
C           -1.24349275846175       -0.61311527522022        0.46352355251882
N           -2.49616259403537       -0.92018749366625        0.72238456070967
N           -0.14004474876228       -1.26898785924236        0.77119981816619
C            0.94388692296956       -0.73099377691940        0.23081107697752
N            1.99765132382547       -1.40265279129399       -0.10020648340357
C            3.20244832643541       -1.03722375118979       -0.46116598422158
N            3.87890351541982       -0.00020136674655       -0.00266646277069
C            3.20414068091944        1.03594504262074        0.45943607206306
N            1.99718247642176        1.40178726517069        0.10508710859682
C            0.94251837318600        0.73015527437665       -0.22375069546654
N           -0.14433976251310        1.26847296558511       -0.75710899079977
H            3.74887078126707        1.74832458647838        1.06823771633496
H            3.74501378552532       -1.75053130528211       -1.07065212745017
H           -5.01795514291624        0.69405731232976       -0.51796993928957
H           -5.01563520218877       -0.69114388144202        0.56349944040363
