24
 energy: -42.980140582818 gnorm: 0.000850993443 xtb: 6.6.1 (8d0f1dd)
N           -4.08101621855589       -1.51792242458432        0.78895878127988
C           -3.17692195476673       -0.67805028075869        0.22301884528850
N           -1.98938665002010       -1.18316346278637       -0.00218160682979
C           -0.82090423668166       -0.59683710277743       -0.19016373606627
C            0.28310302344452       -1.32193960170317       -0.61114907881750
C            1.53885642681636       -0.77567734871636       -0.36896232204461
C            2.84241511763121       -1.20066547850020       -0.46335917789085
C            3.60927306170070       -0.22078937639059        0.23018671181877
N            4.93587734567944       -0.22761338677032        0.39660030798977
H            5.50744184830416       -0.94726304753861       -0.00663413935963
H            5.35564485719090        0.53120792975917        0.90367095905245
N            2.86855743413322        0.77220609448270        0.76518519147686
C            1.61413049349878        0.50968695861597        0.41488729436510
N            0.57409816657661        1.26709702137295        0.64719912870155
C           -0.59746219218369        0.85312645788683        0.16550324921800
N           -1.48659147322172        1.75090892247698       -0.13564084723456
C           -2.74986769982075        1.62272549906946       -0.51224566199404
C           -3.61668165199073        0.60031152478194       -0.22832282326919
H           -4.67761669678287        0.74250824738447       -0.38563440375793
H           -3.13773766559441        2.51414288976674       -0.99468053413201
H            3.23091659979728       -2.08217683167151       -0.93424786225861
H            0.16100524845158       -2.32518373552414       -0.99411256960232
H           -5.05815507341876       -1.28991421019801        0.77102351101961
H           -3.80950213588601       -2.47542177577748        0.92984731124745
