29
 energy: -55.986885334223 gnorm: 0.000726196696 xtb: 6.6.1 (8d0f1dd)
N           -5.62167846637169       -0.79876108458185       -0.50591266857233
C           -4.52853844815897       -0.50004936392449       -0.30629398721968
C           -3.19679467943889       -0.13187043740122       -0.05042455011374
C           -2.29425063752576       -1.20909304211994        0.30370564923608
N           -0.99923377409344       -1.21452262826894        0.23391459977009
C           -0.09256651543818       -0.24416059785782        0.12652859281820
C           -0.36068165090883        1.19344052678428        0.28195323013681
N            0.65230012843142        2.08903012412087        0.46547260058073
C            1.87003079507176        1.69491199114724        0.28792698860203
C            3.07942114899843        2.45953082905062        0.38441781099421
C            4.11273173638330        1.63351571145606        0.08281840387010
C            3.62521833224019        0.29207982964424       -0.19993582257056
C            4.44626070175224       -0.78994067958646       -0.51445947705478
N            5.15259541619205       -1.65765304066640       -0.77959428419008
C            2.25070275216876        0.31493459156384       -0.08381905770947
C            1.22679071210568       -0.64698570099215       -0.11539062775421
C            1.49335831703740       -2.01659176095098       -0.32880063933672
N            1.69223194391833       -3.13213268221750       -0.50542369396628
H            5.15616397259972        1.89245140417347        0.05421398995780
H            3.12320615264986        3.50173644459277        0.63068347236277
C           -1.59052885543227        1.78141046514574        0.14282954226727
C           -2.86895727694816        1.22015218246859       -0.14239050053640
N           -3.83509289138062        2.10394728298993       -0.47420715444433
H           -3.63011050924971        3.08491663711081       -0.53479714307717
H           -4.76870364710869        1.78778032656208       -0.67566450341818
H           -1.56162406651593        2.86475123945930        0.17723483019564
N           -2.85292173609270       -2.38034437015062        0.67510806094522
H           -3.84265758846079       -2.53696625449226        0.59265063429322
H           -2.23467189852303       -3.16480536466163        0.79711390643512
