37
 energy: -64.963102943858 gnorm: 0.000706386020 xtb: 6.6.1 (8d0f1dd)
N           -5.36117531019029       -1.97839853032431        0.22746279572090
C           -4.43127197905117       -1.29886364530053        0.14313404719648
C           -3.32495451871472       -0.45141816573388        0.04349447881706
C           -3.56953184919548        0.83095304874523       -0.52515031053692
N           -2.89256602436010        1.91907748882202       -0.25292276485369
C           -1.69209577591357        2.03009980785494        0.29360962280584
N           -1.47911059478805        3.24494276127431        0.85108976927948
H           -2.25091313518826        3.88750363892845        0.88080455382480
H           -0.65365772496750        3.43147642052269        1.38939556552010
C           -0.60597120866549        1.10878766385430        0.20694003559539
C            0.67407575410774        1.65058740226010        0.15544326575422
C            1.79391370718573        0.84793992019178        0.07284485125356
C            1.63239174544309       -0.59761634228911        0.04708448938495
C            2.90808193280204       -1.16289000274389       -0.07017302283183
N            3.23453214222550       -2.52276627033374       -0.14358909605336
H            4.23766318781168       -2.65753359446869       -0.19354528854093
H            2.84312409978886       -3.07391520368835        0.61084424784133
C            3.84517560611545       -0.10035080028478       -0.13386345490054
C            5.22119731338278       -0.25986206547895       -0.25947780655412
N            6.35944417234572       -0.40694277232085       -0.36544948724254
C            3.16204768881321        1.13368110602781       -0.06245353240822
N            3.76070393313833        2.37925490551590       -0.01912790001446
H            3.20056450595639        3.13848478330823       -0.37505224844974
H            4.71511473461607        2.39375467003804       -0.34793743580457
C            0.35663167543741       -1.16455131648258        0.05990915249504
N            0.27815524628986       -2.53833958537811       -0.12149117377990
H           -0.57117570439945       -2.87460320410520       -0.55156691785349
H            1.11294216160126       -2.90923903908415       -0.55504428338064
C           -0.79420776860492       -0.34699983689563        0.20079487582644
C           -2.05902637721850       -0.95445794997206        0.43460327256167
N           -2.08709221514764       -2.19958041510145        0.98545254628216
H           -2.97979778546729       -2.60107168045813        1.22002344569860
H           -1.26309229995011       -2.55918946393475        1.43421390333113
H            0.79312562580246        2.72410736748267        0.10439195053768
N           -4.66172277951134        0.99226175783749       -1.30274761928146
H           -5.33576888079924        0.25013105093072       -1.38104393840398
H           -4.92002845893126        1.92512075058448       -1.57260296823599
