29
 energy: -45.579188449627 gnorm: 0.000496457510 xtb: 6.6.1 (8d0f1dd)
N           -2.26722104277523       -2.45048267247475       -0.68710242554899
C           -2.37480863043986       -1.16238112223227       -0.22722547593214
C           -3.63085797921403       -0.70873862732057        0.05904797706498
C           -4.05180375364749        0.58056564256153        0.46218490758148
C           -3.33830873297783        1.73673475426034        0.40875315416023
C           -1.98684874326324        1.90319067050087        0.03798222601779
C           -0.97523104015942        0.97598924305857       -0.10947391578886
C            0.34045394584375        1.52657777318841       -0.26333429513803
C            1.43605768078886        0.74555883030941       -0.13383548395414
C            1.31908681153038       -0.67088556538091        0.12813676413995
C            2.61638144175098       -1.13133853185295        0.26396913399470
N            3.06540824617034       -2.41599038551135        0.46347927524662
H            2.43995431338084       -3.01955403460523        0.97415716122273
H            4.02751380623062       -2.45873094330659        0.76275412566499
N            3.54156399771368       -0.11811170460397        0.09241077268395
C            2.87391697374906        0.98463754610642       -0.14345496107649
N            3.47070011305315        2.19937503881094       -0.29085755738517
H            4.46388295009785        2.17660831815279       -0.45542195409642
H            2.95172442785258        2.91183610303989       -0.77535016266253
C            0.03274917047023       -1.24547394027815        0.13017880067328
C           -1.08890578949235       -0.47458270410074       -0.03202335461189
H           -0.04911546478798       -2.31450792792596        0.26719460653446
H            0.42771113506358        2.59524599464221       -0.41423575851098
H           -1.67737588579129        2.93870799163645       -0.05253833399579
H           -3.86104113157817        2.65087258364858        0.66185553999383
H           -5.09206597333489        0.65301363627511        0.75436561001106
H           -4.43062712492879       -1.43082080517064       -0.06936349221552
H           -3.11480853967506       -2.90257602182159       -0.98879481902512
H           -1.42859051922966       -2.70524436280556       -1.18054462114807
