29
 energy: -45.594503523112 gnorm: 0.000703951106 xtb: 6.6.1 (8d0f1dd)
N            4.71216767388232       -0.03325152271200       -0.68563599322166
C            3.43718829315745        0.13255546143601       -0.24017375210449
N            2.82193844317411       -1.01568874593182        0.03343311053024
C            1.56044276760634       -1.23823496245373        0.31096287349090
N            1.34034187318824       -2.49247510901387        0.77538280669755
H            0.45676957278006       -2.73636894461099        1.18404450810330
H            2.14949778504653       -3.05353352483350        0.97887163812479
C            0.40549954975275       -0.39920953758168        0.10624441237471
C           -0.82941490513182       -1.00061878547731       -0.07825940834602
C           -2.00164197298837       -0.25578637512037       -0.10911421906783
C           -1.93335443663363        1.18621307368361        0.13544906557306
C           -3.25811508536307        1.67548904817074        0.10893549550311
C           -4.09877670605658        0.60978134610985       -0.13881010486287
C           -3.34642585932192       -0.57908743480544       -0.28403054311396
N           -3.88374561559719       -1.85139051188677       -0.47324963727816
H           -4.80655315908696       -1.84180940870542       -0.88354186392752
H           -3.26197103065490       -2.49208553107344       -0.94542566347667
H           -5.17195134434886        0.65911531682614       -0.21791159580972
H           -3.55255090596799        2.69830152414436        0.25608810071699
C           -0.71601432037694        1.78396212164181        0.30865137418453
C            0.49062335162671        1.05160453243415        0.23575147562344
C            1.67016697302818        1.79557631201726        0.28177750578853
C            2.98117061023197        1.42530394815393        0.02980737744676
H            3.71943640105108        2.21498130442995       -0.02038434484656
H            1.52617372818215        2.85743934833716        0.44903040899078
H           -0.65703321263781        2.85500886556626        0.45528177556937
H           -0.88580085628738       -2.07143243831811       -0.23041016935503
H            4.99730101343596       -0.95869319769047       -0.95202224256841
H            5.23368426950977        0.75419757506327       -1.02405070493910
