28
 energy: -55.487629022143 gnorm: 0.000899816235 xtb: 6.6.1 (8d0f1dd)
N           -5.59761699542290        0.06947020663833       -0.29974665765097
C           -4.45784024341535       -0.03571591942711       -0.17909495680171
C           -3.06861683215193       -0.16284016588462       -0.01507473979850
C           -2.34644824641431        1.04040859266010        0.26018317406003
N           -1.06361910438847        1.24754722709611        0.10079056062007
C           -0.02225687248121        0.44771908974809        0.02028442951825
C           -0.02857262393748       -1.01228876210098        0.26009325062305
N            1.09635040030777       -1.70803664442948        0.47561956649917
C            2.24213290650302       -1.11058749244464        0.27872748325814
N            3.46925567007311       -1.59234168821276        0.44072641708570
C            4.26358740234496       -0.57427960694093        0.05405851526764
N            5.58772870168608       -0.67153634340253        0.06051266197919
H            6.01575821686878       -1.52661768395954        0.36719714517196
H            6.13646375847862        0.12008497301629       -0.22426029850725
N            3.64902319066952        0.58228505950090       -0.32775425573723
C            2.36485335554498        0.29846502200925       -0.20893433169818
C            1.20774316582250        1.06260053483181       -0.30552133971620
C            1.23957439160887        2.43543454396690       -0.62423834213860
N            1.26127161452967        3.55069683913365       -0.89110140595221
C           -1.16780428819971       -1.78956180411620        0.13752117538539
C           -2.51399531880333       -1.45251940661099       -0.10646187028246
N           -3.34578497527903       -2.47939636212731       -0.39552961969477
H           -2.99972333428344       -3.42143093651917       -0.40525908573349
H           -4.33048611517092       -2.31973878661618       -0.52037024662128
H           -0.95627548620307       -2.85234604993605        0.16721898679274
N           -3.04578095373864        2.13303064999690        0.63187934193051
H           -2.54598391530909        3.00432925971713        0.68798006205563
H           -4.05110968814019        2.13572219501193        0.61922216338433
