29
 energy: -55.988618401801 gnorm: 0.000959425070 xtb: 6.6.1 (8d0f1dd)
N           -5.79078363829922       -0.56222875620761       -0.00060429922893
C           -4.65873414909604       -0.36307969842624       -0.00016756740233
C           -3.26892303289556       -0.11213094825124        0.00008655429976
C           -2.89309186350157        1.24610108721386        0.00055037464608
C           -1.57985372878356        1.74805807214130        0.00096155273429
C           -0.33171002983817        1.15319715758596        0.00096738535105
N            0.65649069726311        2.07127517893841        0.00138259596054
C            1.89585387851801        1.67681347164782        0.00139020608872
N            2.98100496873328        2.46988473749093        0.00171860841503
C            4.02537987665072        1.65767032186684        0.00167287839047
C            3.69257563107162        0.27378901910461        0.00145397646626
C            4.59327900069979       -0.79161563910213        0.00245565938649
N            5.35081715355231       -1.65572016574697       -0.00093666108752
C            2.29860101826243        0.24327207261230        0.00097279797358
C            1.29245765139896       -0.71183732609781        0.00045260913349
C            1.62130833420089       -2.08469235275076       -0.00114600484647
N            1.87727856391007       -3.20387484915574        0.00121995026804
C           -0.06676733933016       -0.29076027233324        0.00052184844110
C           -1.03727509210621       -1.28455903355106        0.00007121664925
C           -2.43672392274266       -1.25982058928849       -0.00010856664982
N           -3.05040260442507       -2.46808132763484       -0.00045946566285
H           -4.05303929195638       -2.53995280231039       -0.00075693589432
H           -2.50491459842681       -3.31118605974070       -0.00073730192920
H           -0.63086646250171       -2.29203320845847       -0.00015299630946
H            5.02427080668182        2.05827190772278        0.00212231153809
H           -1.50707998560473        2.82990703330121        0.00132560370794
N           -3.87823162469650        2.17378255025542        0.00062232821462
H           -4.84637008634621        1.90196719956223        0.00033936455023
H           -3.64781992339252        3.15096663121207        0.00093693969569
