31
 energy: -54.641745441409 gnorm: 0.000588255445 xtb: 6.6.1 (8d0f1dd)
N           -4.40876875028841       -2.05128142112894        0.22613048599020
C           -3.68548248798364       -1.15856901053282        0.14353358054657
C           -2.90905165763626       -0.01019041602525        0.03585606840443
C           -3.46704416132730        1.30125129119162       -0.09516298953226
N           -4.78570951907665        1.55268998893776       -0.12723059468866
H           -5.43903978014563        0.79156422517342       -0.05502845973762
H           -5.12828749059612        2.49195074341661       -0.21828777926112
C           -2.42845031261441        2.24676011202209       -0.18188497399010
C           -1.22145586288713        1.56770587205755       -0.10990973838749
C           -1.51693151794635        0.13219421479742        0.02645055353832
C           -0.47453880250650       -0.78077944151493        0.10289410222226
C           -0.76836144901753       -2.15287422883941        0.21963622777694
N           -0.98401076154898       -3.27802512928745        0.31573733628741
C            0.88813968126659       -0.35495448366844        0.04206059903886
C            1.85033725265686       -1.34054892482364       -0.00043675142725
C            3.26178253825467       -1.27615936521688       -0.09076634155222
N            3.90302972756748       -2.47922041190663       -0.15759766553238
H            4.88338180974645       -2.50544335058150       -0.37376197976930
H            3.36882441095820       -3.31241409445817       -0.32915216619542
C            4.02994001819456       -0.12795248914890       -0.04778144490118
C            3.57313478690583        1.20142267050701        0.07492675348143
N            2.35442135690516        1.68669335325080        0.04165598602191
C            1.16273880942311        1.09886241449049       -0.02083038376385
C            0.09721449961430        1.99096290819462       -0.11891831490014
H            0.33433128854668        3.04175012424627       -0.18348108798429
N            4.53207412124159        2.17409333305006        0.15258116774164
H            5.46816895742646        1.93769517911284        0.42809201864655
H            4.20157620781228        3.10206432997749        0.35434323194481
H            5.10415985209883       -0.25647565098514       -0.10123107936679
H            1.46521992844172       -2.35543171449754        0.01355357072407
H           -2.56075456208529        3.30692287368946       -0.28425139677514
