26
 energy: -48.011682561681 gnorm: 0.000707831774 xtb: 6.6.1 (8d0f1dd)
N           -1.84517735716382       -2.79050383166224       -1.02462970311052
C           -1.69523814860228       -1.74734180195887       -0.56654746573281
C           -1.61716516283815       -0.41483154615463       -0.09748978704891
C           -2.85234212653465        0.25413417168413       -0.03598560456966
C           -3.02633668872267        1.57314139136920        0.45886820083951
C           -2.04926735535288        2.51195532916473        0.64589954198118
N           -0.80331854089641        2.50321490332998        0.19427474310272
C           -0.00844143798452        1.51829088564046       -0.07790979951328
C            1.30128013570588        1.89842447882690       -0.51555681184122
C            2.32053707791128        1.01378354221662       -0.39551528717688
N            3.66068756391121        1.20960990382422       -0.61504882486539
C            4.24128287928082        0.09606788938324       -0.25191480478683
C            3.33542982830108       -0.90846173362888        0.22894299973719
C            2.09335573324027       -0.34501651180807        0.13061069375973
C            0.76269798727793       -0.78941941055644        0.33923078140836
C            0.57313410959700       -2.11445410968773        0.78217017852998
N            0.48189917846760       -3.16957303142211        1.22547725330560
C           -0.29720747767266        0.08199271826008        0.13884838303213
H            3.59886569305893       -1.88821204263955        0.57514356229606
H            5.30974734305964       -0.01000189766686       -0.32775291239578
H            1.46445584489934        2.92762237291653       -0.79218967381551
H           -2.32583744146235        3.45841485360695        1.09768861700179
H           -4.04648113721277        1.86479763243200        0.67293427191546
N           -3.97546977401026       -0.41937610274358       -0.37845447180084
H           -3.93049339080535       -1.38547779882384       -0.65463064992001
H           -4.87424530995187        0.01841656389810       -0.28593430683256
