27
 energy: -46.151635763551 gnorm: 0.000529404597 xtb: 6.6.1 (8d0f1dd)
N            2.35497334694453        2.20089955952932        1.05084124440176
C            2.37396776682204        1.09922782326059        0.27862905380411
N            3.53161180136519        0.70531343902990       -0.14724238902992
C            3.78756967961032       -0.47572694583440       -0.72826840367517
N            3.24699813833009       -1.62492513155265       -0.50696716732140
C            2.03527550511887       -1.82145951250802        0.04110025355582
C            0.96069776337431       -0.95045185532099        0.10322229040978
C           -0.34509136877051       -1.50587468717579        0.26927377979820
C           -1.43580947720694       -0.72187019113930        0.09929835093532
C           -1.32255152497274        0.69535358752866       -0.19239473647156
C           -2.62562623359379        1.14577826900686       -0.34325363732299
N           -3.07555212094341        2.41977197434162       -0.57052666589693
H           -2.45175665889276        3.03228081117136       -1.07103941532071
H           -4.04240662374143        2.46736847991628       -0.85119996301800
N           -3.54218941315912        0.13269539285604       -0.16807674285335
C           -2.86942228332960       -0.96389300947520        0.09820441395181
N           -3.46865616204090       -2.14701177024714        0.38652185641100
H           -2.92745670510414       -2.98675353494611        0.27134137720278
H           -4.45214112697913       -2.20511603475452        0.17963548602610
C           -0.04573870938586        1.28375357413084       -0.17044078449276
C            1.06362038899214        0.49817384326134       -0.02501357555987
H            0.05243428442277        2.35741557466794       -0.26719281632989
H           -0.42716657020609       -2.56786972574026        0.46024636282646
H            1.85619095042600       -2.86258859998230        0.29161033621950
H            4.67729665057957       -0.47902674933340       -1.35124748702332
H            1.49047878411744        2.55823135987773        1.41618888722040
H            3.22986213552424        2.61044898313231        1.33025191745274
