22
 energy: -39.527459053707 gnorm: 0.000598359660 xtb: 6.6.1 (8d0f1dd)
N           -3.69419922509794       -1.52484367119740        0.61683167380072
C           -2.78052437098448       -0.67802685064370        0.09194402515120
N           -1.56023353887136       -1.15318246192975        0.02878561911718
C           -0.40159489796795       -0.55724061893366       -0.20565752517647
N            0.63714267324676       -1.28228658042351       -0.50573808890783
C            1.85149345680807       -0.80268537428466       -0.25602146966762
C            3.11939806915963       -1.23465394304293       -0.56679743475791
C            3.99244170648443       -0.32548050585533        0.08385642635104
N            3.38290896786407        0.67060226103190        0.70097379345817
C            2.05867325155513        0.47277031353977        0.49846531852754
C            1.00688002176731        1.32853633591220        0.63144886395123
C           -0.25230446702316        0.91179396197914        0.12009185621422
N           -1.17691222952513        1.79368904302625       -0.08159565070111
C           -2.40281251934560        1.65890893948410       -0.56361154016521
C           -3.23370878254619        0.57914350375970       -0.41144516168889
H           -4.29265065839581        0.70125908856321       -0.59253387559641
H           -2.80418874489149        2.57967434790459       -0.97266261609239
H            1.12947003285730        2.35454879959270        0.94453486709590
H            5.06724180219806       -0.38976524767848        0.10588608704052
H            3.40247511083673       -2.10562824315106       -1.12238156414244
H           -3.38913640331369       -2.44693205072685        0.87480483390515
H           -4.67368514851473       -1.30955627242616        0.60150538818332
