30
 energy: -54.924246138335 gnorm: 0.000899208831 xtb: 6.6.1 (8d0f1dd)
N           -4.83928240078652       -2.37146702714409        0.25430673877611
C           -4.12226676765151       -1.47376529582952        0.16026330549529
C           -3.28017733067898       -0.37590180903538        0.04630193526522
C           -1.86831095120531       -0.37798401797090        0.03371152354510
C           -1.43362293206070        1.03004853684870       -0.10054175238324
N           -0.14908985142127        1.37687759379493       -0.12145405695103
C            0.77976914290391        0.44302618375782       -0.04131152783862
C            2.09391124952115        0.96625664209817        0.00368157084027
C            2.14958708173269        2.37839990911293       -0.00566239724505
N            2.29685329700394        3.51867615240957       -0.00874224902773
C            3.34838607059500        0.31116975724371        0.07115172499220
N            3.62701224653067       -0.98365440903430       -0.01000553405536
C            2.79083918271124       -2.00010483199178       -0.06335764523042
N            3.41077028785645       -3.20175785673835       -0.16749962988453
H            4.41104685880914       -3.21214462691195       -0.25240959754181
H            2.89255110912114       -4.05315454730108       -0.27471603163904
C            1.37724557950213       -2.02502101914908        0.01624656219301
C            0.45693591419348       -0.99862782227824        0.03035650923523
C           -0.91405759285559       -1.35256981804555        0.09139338603253
H           -1.18539985527903       -2.39782282160227        0.16502457976069
H            0.95391965492279       -3.02384559638572        0.05130923769286
N            4.45463109250531        1.07808857194782        0.20895433469614
H            4.39129292967025        2.08056166846263        0.22582021100027
H            5.34778427356583        0.62013252866846        0.20866698906783
C           -2.55513641287759        1.82112379771357       -0.17376581409376
C           -3.69433797547844        0.97239485891092       -0.08204135844091
N           -4.97107242026232        1.38292207037287       -0.11473147514569
H           -5.19174011754515        2.35848713043439       -0.20365901667999
H           -5.71552098241579        0.71133479025006       -0.03696709269201
H           -2.58252699452679        2.88780979689186       -0.27806809774351
