24
 energy: -43.781052798948 gnorm: 0.000439328998 xtb: 6.6.1 (8d0f1dd)
N            3.76089730169031        2.44850156691151       -0.74149382615130
C            3.12035798118994        1.52300334583935       -0.49912816022819
C            2.39031295957884        0.37647668247860       -0.20197354694316
C            0.99726942972909        0.23802407775726       -0.11522802668640
C            0.72667973677644       -1.18465990580491        0.22635902671276
C            1.93576103522132       -1.83095514304378        0.36422980855050
C            2.96428537192472       -0.89459327854705        0.09177365733087
N            4.27889911676453       -1.14529833087245        0.11167839452439
H            4.62270488548372       -2.06157600839440        0.33834986468691
H            4.93353967461869       -0.40938719387145       -0.09396203399009
H            2.08492042772208       -2.86059057056375        0.62368636035901
N           -0.50601726661916       -1.67070151491025        0.30481234361433
C           -1.52396768413869       -0.84661218163193        0.17147153926951
C           -2.75423778381280       -1.40432665019955       -0.21136268049640
C           -3.93961443984848       -0.72941732966424       -0.48490229954404
N           -4.33866308634574        0.44931027782767       -0.05961300830784
C           -3.57440974511192        1.33866201296563        0.53985573907430
N           -2.28681231991028        1.50905233539031        0.41347764763556
C           -1.34312307354624        0.63871462249025        0.13413490710285
C           -0.05376258681265        1.12342294963417       -0.14134221759808
H            0.09072382765528        2.18713830337236       -0.26001991125594
H           -4.10101326716425        2.13249485473760        1.05976861268480
H           -4.69637586059598       -1.26220054855182       -1.05221459979155
H           -2.70932428864938       -2.45774069424921       -0.45927317495327
