31
 energy: -59.444493463532 gnorm: 0.000856374953 xtb: 6.6.1 (8d0f1dd)
N            3.28067673244899        3.86122811393711       -0.34642179174560
C            2.87449944360380        2.78926534954709       -0.24789876213429
C            2.45378090822599        1.46745135957458       -0.12421626987293
C            1.13439764443817        0.97835261925282       -0.07631826497497
N            0.01341501733450        1.64885042137674       -0.12330403482110
C           -1.15716293209360        0.98384093698381       -0.06181150018219
C           -2.25616472179043        1.81664996518983        0.02092068694461
C           -3.63773769958983        1.53341651947996        0.11005045948770
N           -4.45395681102446        2.60609106580009        0.26746249534740
H           -5.44861558675289        2.49064943509211        0.32826167247699
H           -4.07018483599824        3.53103879231039        0.32842518957415
C           -4.21962646643538        0.27702437479702        0.01623566245204
C           -3.57122279867749       -0.96230281917482       -0.14665056425269
N           -2.28436042298724       -1.25512219879620       -0.08563697407215
C           -1.21360137367669       -0.49016864365038       -0.02280118945077
C            0.01144732140144       -1.19705414945535        0.07850523337695
C           -0.02716122569899       -2.60563983109638        0.15729957246088
N           -0.06495206365744       -3.75003546410100        0.22623776663591
C            1.20931907189061       -0.49158366250948        0.06012577649630
C            2.55576764706058       -0.84847247246119        0.09723223521817
C            3.13121069679852       -2.11204977844643        0.21353806021724
N            3.68430994417782       -3.11652688368465        0.30812903451280
C            3.32612189790414        0.35655451695952       -0.01566958468104
N            4.66061533986916        0.40644271546868       -0.02025727310250
H            5.13230884109676        1.29068153424778       -0.10962304902816
H            5.19635867273576       -0.44202554036163        0.05738924878758
N           -4.33938767630686       -2.05676256425344       -0.36043195365070
H           -5.34076748681600       -2.02117144765742       -0.30750465172869
H           -3.87236423726235       -2.94677596645458       -0.38099568997234
H           -5.30118380720461        0.23973589595773        0.06227176534767
H           -1.98813234971352        2.86663471822759        0.04690218313390
