30
 energy: -54.913748337425 gnorm: 0.000579417256 xtb: 6.6.1 (8d0f1dd)
N           -5.60290227598921        0.06881826234405       -0.33933476906841
C           -4.46504699481674       -0.04055426026145       -0.19663995386452
C           -3.07871021906048       -0.16743199824031       -0.02152352665599
C           -2.35890074066136        1.04138257252007        0.25963340297960
N           -1.07765109109575        1.26065046587887        0.15250324152954
C           -0.02906631247012        0.45642327846978        0.05768793547703
C           -0.03750445431806       -1.01692166002470        0.22468008114879
N            1.09163212431351       -1.72153564478913        0.39232102452026
C            2.25097185623893       -1.12118921687113        0.24872515789480
C            3.53421419970460       -1.63860179210748        0.36723006935482
C            4.43164493920662       -0.60546845784997        0.06368177208182
N            5.77049798772805       -0.69993602041695        0.05941599735676
H            6.22108224184388       -1.56411336797690        0.30238073587276
H            6.33553530727329        0.10199879090211       -0.15641505361053
C            3.71452532253471        0.60005286151635       -0.24023082901306
C            2.38304588940557        0.31838948601077       -0.13411532784771
C            1.20193032392416        1.07679126873134       -0.19891753998619
C            1.25191540733597        2.46152798744576       -0.44796429292414
N            1.32434548875805        3.58757510926910       -0.66321510041260
H            4.16509497635573        1.54339126553581       -0.48486284050287
H            3.79217664729927       -2.64482462242801        0.63075622047862
C           -1.17538580244404       -1.79318419972451        0.10085732543582
C           -2.52586281583890       -1.45428109953068       -0.11629683355094
N           -3.36425235076890       -2.48585238454229       -0.38631626974196
H           -4.34556516734789       -2.32200280501457       -0.52937631720411
H           -3.00993850144070       -3.42257114525039       -0.44593903965721
H           -0.96424787369630       -2.85677620399932        0.10961474430358
N           -3.08216066851016        2.13174052816142        0.61537976465013
H           -4.08387887765805        2.13438005542037        0.52939944873801
H           -2.58895968491046        3.00732487462074        0.65834545411861
