32
 energy: -48.734037403187 gnorm: 0.000342498797 xtb: 6.6.1 (8d0f1dd)
N            5.10542434288902        0.46742863754923       -0.40639339355395
C            3.74624027873585        0.41453212114818       -0.20367797074224
C            3.04929250726642        1.60374696369227       -0.17607803167987
C            1.68691583050739        1.79761354804126        0.06863822462247
C            0.62884778029200        0.91062798638902        0.15149745613421
C           -0.66115884487232        1.51296151442868        0.23330065115739
C           -1.80193304275593        0.78966881675772        0.10571014320321
C           -1.72613836979831       -0.65190884286453       -0.11561649922014
C           -3.02288965536110       -1.11294356729198       -0.27989575483443
N           -3.43342592612983       -2.43236987840952       -0.45293006747772
H           -4.33861179698122       -2.52034728335844       -0.89227682160258
H           -2.73797516155320       -3.02068018110055       -0.88881164039702
C           -3.91079311028352       -0.00716747642974       -0.14369666058088
C           -3.19256112661941        1.14228894717495        0.08963944350097
N           -3.68692302108620        2.43722535503195        0.19894177536775
H           -3.09645934910290        3.05866573812971        0.73160633207116
H           -4.65473191085987        2.48332896970884        0.48325658863693
H           -4.98279246952720       -0.07616510787744       -0.21685270936380
C           -0.47172477604610       -1.26590366975788       -0.08577475818075
C            0.69484892724537       -0.54838941360258        0.08994678095033
C            1.93025534818346       -1.28421831099971        0.28812129821774
N            1.77987710460001       -2.60562356428916        0.63337150439599
H            0.92464244890048       -2.87373741245877        1.08927086616165
H            2.60640471894516       -3.09600196140082        0.93335493979703
C            3.22468763126742       -0.86411138050597        0.11209828686399
H            3.98380146684237       -1.62846420061458        0.24990930271565
H           -0.43294816279094       -2.33770294964423       -0.22735264560043
H           -0.70420092510302        2.59005401469206        0.34175478945094
H            1.40302201086725        2.84313736989103        0.12656588228875
H            3.63157537457149        2.50171224980626       -0.34570628091620
H            5.48246055610242        1.31487151321268       -0.79592083209626
H            5.57700656875514       -0.38218389674809       -0.66598023429000
