31
 energy: -49.830982912554 gnorm: 0.000833063494 xtb: 6.6.1 (8d0f1dd)
N           -4.45201437532912       -2.09134381206256       -0.31831891462533
C           -3.59687794687494       -1.32417240614816       -0.20389831117578
C           -2.56995216117410       -0.37698398281754       -0.06833581692274
C           -3.01669628308485        0.94199575700910        0.25200130305154
C           -2.25467437377745        2.09689904191345        0.16594142341376
C           -0.90128477109319        2.22812148449295       -0.10758431338162
C            0.12367616884545        1.29300871282052       -0.18485727050705
C            1.42799015108517        1.83533032674175       -0.29646692745378
C            2.54726209146696        1.06349592283663       -0.17603231293543
C            2.39866489375793       -0.36769804546191        0.08305463640891
C            3.68455456478131       -0.89148780418581        0.24641359293338
N            4.02304640038433       -2.22172729630877        0.45056219272115
H            3.32161979586483       -2.76675515182106        0.92967676062372
H            4.94984622092112       -2.35941124589595        0.82554206114296
C            4.60564582352309        0.16673144109028        0.06674875861619
C            3.93209979787360        1.34461144623650       -0.18384393701284
H            4.37585666762170        2.30838347443876       -0.35125990660017
H            5.67478909149719        0.05324402503848        0.12571841498444
C            1.13170433422454       -0.92670069546777        0.08112052454884
C           -0.01753819929615       -0.15906046951583       -0.09847337162763
C           -1.26009867474678       -0.85174179960216       -0.27841727957479
N           -1.17669147537651       -2.15095700055000       -0.65669203902819
H           -0.30709015829456       -2.52777874985189       -0.98502431921391
H           -2.01968439920371       -2.67986338822093       -0.80597876122757
H            1.04822746792433       -1.99034932258567        0.26452070995698
H            1.52520936520073        2.90504379578843       -0.42841284494491
H           -0.57226985448286        3.25720698052345       -0.19896497784588
H           -2.79791120532364        3.02065207460734        0.32506143064106
N           -4.32205297686276        1.07236247173834        0.60754980804897
H           -4.72136601669903        1.99018836799212        0.68960479882354
H           -4.94332433065279        0.28386007632813        0.54596647896236
