25
 energy: -38.704513343306 gnorm: 0.000608543527 xtb: 6.6.1 (8d0f1dd)
N            3.95972991981563        1.63629281121037       -0.08868880611309
C            2.96351223479049        0.68629682730804       -0.02467875238596
C            3.37131784287460       -0.65487933711026       -0.02308775666712
C            2.58656241127247       -1.78569150818047       -0.02002582250879
C            1.20090108531595       -1.89716803232912       -0.00773298904189
C            0.18770452048851       -0.94215100628574       -0.00406749272702
C           -1.12717840669413       -1.43500659584163        0.01848032821217
C           -2.21019545181409       -0.58854262890562        0.01710163988127
C           -1.99904660787435        0.87193250805004       -0.01314702150922
C           -3.28493491249610        1.40934908735363       -0.00938440655007
C           -4.14423090914500        0.30935889474937        0.02230602122270
N           -3.51886291993252       -0.87743589671281        0.03812108958395
H           -5.22119143911727        0.33809344308382        0.03460216054330
H           -3.56746841469937        2.44409086020162       -0.02677836377411
C           -0.71187062037712        1.36805616008050       -0.03252030424164
C            0.40402602331737        0.52144091795901       -0.02511684944664
C            1.64907118284222        1.15209112296572       -0.03092382735890
H            1.58114606283825        2.23667641194428       -0.04313276330998
H           -0.55422014659309        2.43879656279252       -0.05211452478159
H           -1.29182330933760       -2.50243300898505        0.03681803149059
H            0.83855897835733       -2.91933804522811        0.00193494582610
H            3.12446034701732       -2.72542010764622       -0.02110423333948
H            4.44368443266867       -0.81263201421678       -0.02774208309148
H            4.89556583623374        1.35468936890101        0.14740633975359
H            3.72172130864810        2.58755601424186        0.13349758773330
