25
 energy: -48.292286425696 gnorm: 0.000864025673 xtb: 6.6.1 (8d0f1dd)
N           -1.91867360440693       -2.67735686242400        1.15043294169314
C           -1.71093091482727       -1.68019924257493        0.61988450109886
C           -1.59333443247946       -0.36100300140960        0.10810528478914
C           -2.85328711882831        0.26292743119778       -0.10826263171634
C           -3.06435541739843        1.63145010297411       -0.32796787875303
C           -2.16143133660281        2.67028335022125       -0.22303721480638
C           -0.79819886358748        2.62585967840390       -0.00967007671821
C            0.09548001416167        1.54371161510857        0.01176139314845
N            1.36615991320836        1.93203154301868        0.09491229548942
C            2.32895862110326        1.05334038849035        0.17094855334947
N            3.64762054146908        1.23229074679825        0.16058874828792
C            4.13891748499655       -0.00977805712015        0.11771511299156
N            3.26136504823399       -1.01336551312747        0.01213236695308
C            2.07697624701537       -0.40964627728442        0.07187968500871
C            0.77166387214215       -0.82763268025691       -0.12492118685001
C            0.53743543730932       -2.15445434688027       -0.55184140568090
N            0.39890594393335       -3.20453349329391       -0.99137674493912
C           -0.28060251905215        0.12736048842319       -0.04859461642755
H            5.19719765194431       -0.19418863932725        0.14509680142340
H           -0.29163866385718        3.57520384889957        0.10558102760533
H           -2.58390297841899        3.66219506512772       -0.31929868524138
H           -4.09372582728620        1.90686175955763       -0.52224973703975
N           -3.94889771048637       -0.53023081239795       -0.10153348260257
H           -4.86498555220612       -0.12610741350237       -0.17851314519820
H           -3.87287537068009       -1.51602339792232        0.08441366313471
