28
 energy: -56.269179622466 gnorm: 0.000783266927 xtb: 6.6.1 (8d0f1dd)
N            3.48714778523199        3.33005909667060        1.18551730088943
C            2.92946020311678        2.39201912837141        0.82422395110442
C            2.33841351517851        1.20439598767070        0.39223324810042
C            0.98695503176920        0.94175436777251        0.14186191956371
N           -0.03141740123390        1.76936312372239        0.16660185803842
C           -1.22504508885212        1.28166837991879       -0.15205275461628
N           -2.12383402474632        2.07991211769554       -0.64856981987265
C           -3.39964060471357        1.89007277955335       -0.92408577543241
C           -4.26845380365970        0.99543911624822       -0.34153873302725
C           -3.82037821071764       -0.12401376812006        0.40880151014445
N           -4.67233497723211       -0.78458274684825        1.21651447546660
H           -4.38107669762341       -1.66494521361187        1.60610540737533
H           -5.64095861886460       -0.52476906034587        1.26130103577071
N           -2.64036666614157       -0.68860729599599        0.23334530817842
C           -1.48809835852324       -0.19937669377426       -0.12068665576126
C           -0.38754771358762       -1.04993438403911       -0.38240429035048
C           -0.60018735506903       -2.42829827334048       -0.58809345377204
N           -0.80621612757441       -3.54267044675898       -0.76487472768985
C            0.88056785596350       -0.48525233254292       -0.27643269210017
C            2.16994606604799       -1.01271171242264       -0.31201715879796
C            2.58126872004961       -2.30282592221965       -0.64732706985026
N            2.99459815985014       -3.34105613962328       -0.91863934530599
C            3.07389018477787        0.02094670027311        0.09500021850068
N            4.39419603271616       -0.11294869540046        0.19030634881307
H            4.96005331319434        0.66252400397153        0.49530969597866
H            4.83301409960038       -0.98887658659489       -0.04402788838817
H           -5.33281783593447        1.12106575481236       -0.48338547403844
H           -3.79924664842344        2.62968180755610       -1.61016901102142
