31
 energy: -54.639974207492 gnorm: 0.000392557645 xtb: 6.6.1 (8d0f1dd)
N           -4.36680680012556       -2.06838593509580        0.24062220334375
C           -3.64670574420040       -1.17203957026841        0.16978101450341
C           -2.88495397550615       -0.01253755489630        0.08382038669773
C           -3.48159673407644        1.30991782297949        0.02227571027417
N           -4.81149673773493        1.50790424175891        0.05321969848097
H           -5.19553320366113        2.43285609437624       -0.01337576853357
H           -5.43000928885189        0.71637095343185        0.09507609812670
C           -2.47783465045803        2.26456620722799       -0.06039408782379
C           -1.24341654670179        1.59826120378675       -0.05362208453872
C           -1.50984503279746        0.15518877895295        0.03682239055565
C           -0.43443351865229       -0.73980234854860        0.04343325789702
C           -0.65081132717746       -2.13194996192773        0.10452444581089
N           -0.81946553856869       -3.26605681255720        0.15960966861655
C            0.89550683799343       -0.28600605307649       -0.02698511360489
N            1.78935554875689       -1.26050358033353       -0.06828448547102
C            3.10366016133791       -1.25804876852939       -0.09919983922372
N            3.62516441483972       -2.50591495341478       -0.25164740850777
H            2.97020838132853       -3.26788830924195       -0.20279119508375
H            4.59749200323772       -2.68821832434875       -0.08358807682626
C            4.00778274063675       -0.18081920393474        0.00508691930233
C            3.70470601377077        1.16891126025657        0.03953274858096
N            4.74782293758568        2.05556055596709        0.07555829645018
H            4.56321079531910        3.01891225457203        0.29155314651637
H            5.66854153791050        1.71232995001929        0.28414803815693
C            2.41418720493160        1.74034334774041       -0.02587406792776
C            1.15479579537260        1.17109505419687       -0.06328391690422
C            0.05195617419138        2.05033581460982       -0.09986191065191
H            0.24370754053300        3.11394499289889       -0.15126731574815
H            2.41895926298902        2.82649755131288       -0.02812076632413
H            5.05769897306029       -0.44507765176830        0.04222321789538
H           -2.62209845098281        3.32654857795393       -0.11838916493935
