28
 energy: -51.464037127700 gnorm: 0.000616168664 xtb: 6.6.1 (8d0f1dd)
N            3.09211739584843        3.02860976356270        0.22331158858696
C            2.76728619174903        1.93090539076472        0.11822098337440
C            2.43574376775831        0.56195475112926       -0.01254410116154
C            3.53276995327562       -0.32218178673171        0.19862332056747
N            4.69067555164263        0.21211927755736        0.66253206826788
H            5.51331191889778       -0.35974279195806        0.72398478997110
H            4.78007108810320        1.20350500407129        0.80358933230432
C            3.53627178691921       -1.68075286589611       -0.13138473031327
C            2.45321305673774       -2.44221349242517       -0.54812980863161
N            1.17793412535750       -2.20450386826433       -0.42867057607577
C            0.50955500015893       -1.10132303840672       -0.17379926448151
N           -0.77478250421152       -1.29660859047165        0.08482246172109
C           -1.60006408576956       -0.27086827843887        0.05500893310144
C           -1.17360123374101        1.10170590962434       -0.32839093944889
C           -2.30398135563725        1.90379814231379       -0.37930938854446
C           -3.40824535276745        1.11495059230482       -0.01911409719834
N           -4.68357917104860        1.51072605261282        0.06867169336010
H           -4.94377688069862        2.45957495731540       -0.13516629683336
H           -5.39250077120522        0.84987237041309        0.33999632097754
C           -2.97605722380812       -0.23232660691098        0.25813747809735
C           -3.84689818501631       -1.24773745587032        0.63996760142744
N           -4.63683212808412       -2.02282487361735        0.95739564143269
H           -2.33951493884695        2.94593050261128       -0.63433406695438
C            0.18264493271039        1.33503092770234       -0.45737231980691
C            1.08022765206725        0.28029786550619       -0.26530197278374
H            0.55116574380022        2.33776456656814       -0.62953326711845
H            2.66949749413509       -3.43370440704075       -0.93573919072450
H            4.49398661207370       -2.18225562622512       -0.07239557601297
