22
 energy: -39.532704714902 gnorm: 0.000844939320 xtb: 6.6.1 (8d0f1dd)
N            3.65502849680460        1.37973963088221       -0.71787562209553
C            2.71835479690271        0.64980396518131       -0.08003227039349
N            3.18800912996801       -0.48728294097631        0.49633862750343
C            2.40244730806877       -1.48515379199364        0.76149505811012
N            1.19768267800596       -1.72416608178697        0.26419480167253
C            0.25042956930279       -0.89057586972136       -0.00783609922092
C           -0.98646028198633       -1.35508613576112       -0.54171651940135
C           -2.06778518100887       -0.54415384920693       -0.39695694376109
C           -3.47174011700010       -0.75389598012081       -0.54226479014472
C           -4.10706922040746        0.29781786328683        0.05035758989597
C           -3.15455062418281        1.23082020512457        0.59064176107312
C           -1.90528293430393        0.77411213909659        0.29606767292571
N           -0.69541857015991        1.31317723503676        0.50283152603496
C            0.35428769057501        0.59607615057590        0.26805118348023
N            1.51977582555727        1.17710294028304       -0.01238831384056
H           -3.40075820084198        2.12823727861763        1.12321699435253
H           -5.17301528543387        0.42546883102894        0.12492309292039
H           -3.92225588377210       -1.59523622943404       -1.03342360438484
H           -1.05940900556045       -2.38719683635064       -0.85644526064903
H            2.83498182640103       -2.30576568131489        1.32418789310672
H            3.41745251278920        2.31253078566005       -1.00545124853500
H            4.61736489018232        1.10572469709292       -0.63044262494924
