29
 energy: -51.199118072617 gnorm: 0.000806973845 xtb: 6.6.1 (8d0f1dd)
N            4.39636501881134        1.73314880230985       -0.20828087240610
C            3.57803730227577        0.92595428765238       -0.14122471093753
C            2.67926282842761       -0.13248322982393       -0.05525637571717
C            3.09715430916991       -1.50584546419256        0.02561092339828
N            4.38276976398574       -1.89045401721195        0.02431343186862
H            4.62933981973604       -2.86201331995814        0.08349604969990
H            5.10995590291118       -1.19787183060687       -0.03267261674920
C            1.96688074609601       -2.33252004306986        0.10118741352587
C            0.83781803464774       -1.52263958677455        0.07142066456319
C            1.28484718882243       -0.12437055938411       -0.02597530354281
C            0.34209323196171        0.90048446307950       -0.05667270128587
C            0.79298036563325        2.23436830841659       -0.13943282563034
N            1.15754134339150        3.32131408383175       -0.21148974368189
C           -1.04829982982252        0.62510690949124        0.00643666288618
C           -1.91289996510708        1.70988484881780        0.08945759719483
C           -3.30676215318258        1.75655700953996        0.17903512526996
C           -4.20232258594994        0.72171221062570        0.11954624722327
C           -3.89267533453290       -0.65498810062732       -0.04064267897675
N           -2.72551142971024       -1.25360078278466       -0.02951005275906
C           -1.48094493659592       -0.79310714444539        0.03191142402775
C           -0.51666934325658       -1.80043584760828        0.08979965793741
H           -0.86706750956562       -2.82043852939111        0.12787374195489
N           -4.94354217836959       -1.51607245026100       -0.14595089326406
H           -4.72835478822176       -2.47709986187250       -0.34622984535879
H           -5.86834312410156       -1.17716745776516       -0.33901845191074
H           -5.25493769203656        0.96290283481361        0.19280820286439
H           -3.72692804528312        2.74815935982560        0.29086240852509
H           -1.42713835456751        2.67906382366706        0.11136379215159
H            1.98162280193311       -3.40341505539437        0.16834811922918
