28
 energy: -51.470242599214 gnorm: 0.000447084045 xtb: 6.6.1 (8d0f1dd)
N           -2.15034222863879       -3.63456241201264        0.00042624403740
C           -1.88108124616213       -2.51548031499469       -0.00091906271000
C           -1.65257796104326       -1.12301122017159       -0.00022917180575
C           -2.84830760280827       -0.37146210099697       -0.00064657276914
N           -3.02592417675251        0.95267938319537       -0.00014268748004
C           -2.11791288497377        1.89267060986527        0.00024815641687
N           -2.61185556065893        3.14891387434582        0.00115779837220
H           -2.00990252548797        3.95199528885080        0.00064377192607
H           -3.60908918727674        3.27054918527772        0.00097091896344
C           -0.69065944996587        1.78895820560310       -0.00016470226795
C            0.13885541808252        0.70045038684243       -0.00023831364635
C            1.55378828713962        0.99987399547905       -0.00054935855265
C            1.99045274621569        2.34063495027263       -0.00125542449858
N            2.32505824956233        3.43916518133891       -0.00169119625240
C            2.48336328152134       -0.00976651402341       -0.00010450262620
C            2.04195765284273       -1.41705471702263        0.00057459894754
C            3.21066265775863       -2.14780135374136        0.00088621172191
C            4.25428920327337       -1.18654765630143        0.00037742171196
N            3.83552206757700        0.06813938108930       -0.00019454761892
H            5.31010121457505       -1.39662209887849        0.00043820597984
H            3.32783855968202       -3.21309416459120        0.00138402125258
C            0.68007690327073       -1.70656967996783        0.00062000644570
C           -0.28145503972538       -0.70965979817616        0.00014618695072
H            0.37030477953206       -2.74167191581300        0.00098461732533
H           -0.19426067330246        2.75309437482871       -0.00031115332434
N           -4.02999964387318       -1.03168370911574       -0.00160959801406
H           -4.07679240261315       -2.03498497801833       -0.00163338098306
H           -4.86978544975070       -0.48175475206366       -0.00145514490205
