29
 energy: -51.183641734392 gnorm: 0.000938364700 xtb: 6.6.1 (8d0f1dd)
N           -2.62398160487841       -3.33799794972186       -0.00395834060599
C           -2.35849416950428       -2.21902462318700       -0.00891011817569
C           -2.13246607839021       -0.82155952541108       -0.00300277735829
C           -3.33921070210245       -0.06387913844140       -0.02329189960676
C           -3.42242074900456        1.32775134740206        0.02961351192877
C           -2.38617255606135        2.25201479449374        0.08179640914897
N           -1.08977147458157        2.10816796983886        0.05397579252037
C           -0.33947122061630        1.01444783216984        0.00942341952088
C            1.03461381732017        1.29192640508216       -0.03182135750584
C            1.45995998650365        2.63666293392974       -0.05220361948654
N            1.86290752748640        3.71142055560707       -0.07229984229466
C            2.00079625515637        0.27438198058913       -0.03928237339759
C            1.54438880011978       -1.13080717148363        0.00195826764657
C            2.67404555100908       -1.93622595666769       -0.00108304587283
C            3.79680753445995       -1.09000169466982       -0.04114473995963
N            5.08089356585595       -1.48301242677757       -0.05461060128482
H            5.31703145663767       -2.45913354042311       -0.03625994977946
H            5.81960441020326       -0.80299777856798       -0.08072786025262
C            3.37142689313304        0.27463874425511       -0.06460757730307
H            4.02027820744990        1.12861047143502       -0.09475731264472
H            2.69644695798336       -3.00857490831162        0.02232510340559
C            0.19135566138637       -1.41151606100069        0.02833166791366
C           -0.78403011013924       -0.40997773031347        0.01786729726444
H           -0.12017164983559       -2.44683090830920        0.04888971548920
H           -2.68414188288169        3.29575892160552        0.14116091248805
H           -4.42498225287378        1.73768148257888        0.02997998994985
N           -4.51323044882428       -0.74716120473685       -0.11066663593848
H           -4.53171765652864       -1.75053593070812       -0.05257584208275
H           -5.38021842678235       -0.24861270745599       -0.02327211962661
