29
 energy: -50.394329081570 gnorm: 0.000572854281 xtb: 6.6.1 (8d0f1dd)
N           -4.21980822237736       -2.43500181548378        0.91936874037203
C           -3.60771324590028       -1.50711367144212        0.61178731336243
C           -2.92307995643756       -0.36019495616287        0.23742661738738
C           -1.53675992910265       -0.16583469437531        0.13886909934692
C           -1.32250387576505        1.22758735823322       -0.30341641437328
C           -2.56701056107465        1.82169159791597       -0.45887651337203
C           -3.55133598187052        0.87009119867128       -0.13426279788137
N           -4.88162332645220        1.05604680095386       -0.15802766964257
H           -5.27201063033854        1.94099334934245       -0.42709780712353
H           -5.49578212038344        0.29869837485716        0.08714248229805
H           -2.76031688563354        2.83120822999885       -0.76871844059964
C           -0.03053831525893        1.71407636563745       -0.42183445897121
C            1.06543204932043        0.89953608778213       -0.14924658244263
N            2.22630340268146        1.50722458701582        0.02261216251749
C            3.43310227191453        1.00671953016621        0.22720939346682
N            4.35639873144427        1.95308668742729        0.56869525293707
H            4.00188240992061        2.86045705156857        0.81442656320090
H            5.25469186445070        1.67853138129271        0.92033118227179
C            3.88493659676228       -0.29897200159566       -0.01294074895678
C            3.06320935161791       -1.39766848734148       -0.26859447882676
N            3.63199127691641       -2.56006513471019       -0.69951691716772
H            4.62664596908482       -2.68357746790426       -0.64248766317114
H            3.04862715880780       -3.37861420415203       -0.68381582829651
N            1.75382285030730       -1.50112264037279       -0.06227272942574
C            0.83676141808354       -0.56932091519282        0.06326531033343
C           -0.46834772561755       -1.01476011071031        0.31427610549187
H           -0.61695798801252       -2.05605725103309        0.55801575236155
H            4.95528557962146       -0.46278485352062       -0.00918061911689
H            0.15065954609220        2.75354036963561       -0.65031585917974
