31
 energy: -54.634732465141 gnorm: 0.000469898269 xtb: 6.6.1 (8d0f1dd)
N            1.44796322222584        3.34804503016363       -0.84553724076392
C            1.45701599758057        2.25323108190825       -0.48960699144686
C            1.60859224350661        0.88776831813296       -0.17600802797675
C            2.94939445226277        0.45222010990585       -0.15556522023555
N            3.42532894852401       -0.73191639163122        0.23450254779426
C            2.78213940379998       -1.86912491936758        0.29505395249636
N            3.52963124162706       -2.91896108453517        0.72674912581150
H            3.09521773160836       -3.79378120111362        0.95731345772654
H            4.43743315708855       -2.71500036974844        1.10638474091056
C            1.45863828471209       -2.16577688984686       -0.13734265946741
C            0.37764432873758       -1.32628167348761       -0.26498974304659
C           -0.87262916341915       -1.93438743639607       -0.56443167460804
C           -2.04927656127295       -1.26751786465384       -0.38339218335565
C           -2.02633892597375        0.11586286789998        0.12863793179723
C           -3.31398066525364        0.51613109474581        0.31408709996047
C           -4.17251561572423       -0.57634410639601       -0.09115522385415
N           -5.52081713985137       -0.52307953732792       -0.00985522384129
H           -6.07163952277936       -1.25211794381462       -0.42783164275194
H           -5.96642381954143        0.35813369755256        0.17504259753138
C           -3.40013402149441       -1.64501478391701       -0.50954224568457
H           -3.75938845628763       -2.59277155034625       -0.86176313600587
H           -3.65682030161570        1.46496856955188        0.68115687046114
C           -0.77859976450868        0.77556626287328        0.27991633783441
C           -0.82107983835601        2.09027976808208        0.78149929078287
N           -0.94482050914358        3.11319116641013        1.29127445367238
C            0.41503020718408        0.12270140724202       -0.00554582110540
H           -0.87347576783453       -2.97614685409607       -0.85472388242741
H            1.26360049987881       -3.22107095352601       -0.29136058626415
N            3.93033343931401        1.32742181798640       -0.48932847817889
H            4.87938442632187        1.03999334235047       -0.33121637962714
H            3.72031545488417        2.30003333529895       -0.63271950533742
