29
 energy: -55.214108285216 gnorm: 0.000711203441 xtb: 6.6.1 (8d0f1dd)
N            1.94278558237643        3.81566553160510        0.08858429278671
C            1.81159062209686        2.67307540542229        0.05691488234645
C            1.76885500225819        1.26196315132574        0.01254134809277
C            3.06251122910949        0.67587436414479       -0.11606998000843
N            3.42523113355937       -0.58725178901325        0.03072535288886
C            2.64977044221052       -1.64733186332432        0.14738687952067
N            3.32117238062185       -2.79351214930377        0.39958287488647
H            2.84984420637346       -3.67911629023893        0.42455237835660
H            4.32389074643669       -2.75935273819266        0.44738461384563
C            1.24804363220021       -1.75332156624429       -0.00646396287651
C            0.26023818835292       -0.78857147171837       -0.06505602725707
C           -1.07529968590997       -1.27082835141610       -0.19662169980778
C           -1.32885832879693       -2.64161902860995       -0.38691165590285
N           -1.53247531927574       -3.76127269227730       -0.54673676820240
C           -2.14660638786947       -0.39711724975028       -0.09874325367396
C           -1.89622898468607        1.03897415289766        0.13971114555488
N           -3.07145262807358        1.65368864344151        0.22331750370976
C           -3.96609288105949        0.64939480331737        0.04325204522592
N           -5.27753979103129        0.87240524175312        0.05990928844077
H           -5.61516422658904        1.80696760006230        0.20323573533956
H           -5.90600116384527        0.10183648756158       -0.07950236011082
N           -3.46068685511442       -0.59101496651611       -0.15292166087623
C           -0.60477610584095        1.52045202627401        0.20820004389693
C            0.48784495504777        0.66265328848968        0.06815268045918
H           -0.44616430303312        2.57951130090764        0.34143578554339
H            0.89084839675745       -2.77624560619716       -0.05174165369762
N            4.10792608172151        1.49380743051028       -0.37409224008296
H            5.02623664175742        1.08678037819556       -0.37871412375124
H            3.99789030424532        2.49159769519385       -0.41829497264661
