28
 energy: -41.866577439387 gnorm: 0.000545897113 xtb: 6.6.1 (8d0f1dd)
N           -4.28137223276528       -1.76063110542583       -0.09618472384245
C           -3.33210100047448       -0.75462593723102       -0.02677791569703
C           -3.80002676681213        0.55655984168838       -0.01998442894066
C           -3.06000596460661        1.72897331039881       -0.01884251226553
C           -1.69101077329609        1.90217046685335       -0.01218983208261
C           -0.62578644829632        0.98869383650530       -0.01116323762391
C            0.65821080095545        1.52641216882132        0.00746427125322
C            1.79495301283035        0.73200417603688        0.00579620587120
C            1.64104914763899       -0.73476109157681       -0.02253930433712
C            2.91846648051638       -1.28849682118896       -0.01538094803651
C            3.83846790848997       -0.23101542427403        0.01827798677067
N            5.19514911621726       -0.36054105227520       -0.01506605222067
H            5.58594710387325       -1.26280251249312        0.19665430351032
H            5.74952702124346        0.43926501210798        0.23897360954825
C            3.14866980615248        1.00674480287624        0.02992773081513
H            3.61280003231905        1.97545484426838        0.05374122594519
H            3.16543237242397       -2.33386168106989       -0.03159190968276
C            0.37475186587315       -1.27699915788274       -0.03980312011648
C           -0.78286779612868       -0.48168561236786       -0.03113698107051
C           -1.99312413826454       -1.16511225835983       -0.03607029968091
H           -1.88057122335322       -2.24611474518768       -0.05038938909168
H            0.26196678393996       -2.35346042525833       -0.05919411961094
H            0.77064256875675        2.60274452042257        0.02391077498330
H           -1.37102413371599        2.93903154839555       -0.00456465530462
H           -3.64450897930135        2.64112621221082       -0.01612921102905
H           -4.87808410388163        0.67040023040642       -0.01921816038965
H           -3.99061957583900       -2.68637280447897        0.17010789579232
H           -5.22166897009517       -1.51963238392183        0.16896908983352
