30
 energy: -49.303458006618 gnorm: 0.000750911111 xtb: 6.6.1 (8d0f1dd)
N           -2.50198178745406       -1.78334740980034        1.27868058015179
C           -2.38753889496026       -0.78394927172446        0.38047529022140
N           -3.49138893949134       -0.25257982473030       -0.03392747762852
C           -3.64596554913787        0.92267838808379       -0.65423597521165
C           -2.82027605379386        2.00685575596665       -0.58100703203801
C           -1.48774100536255        2.01866113279017       -0.11039306008371
C           -0.63063045994317        0.95970249139280        0.09546416957887
C            0.77272560592092        1.25773210907518        0.30737195001170
N            1.18996134434871        2.50335537123404        0.68895258134567
H            0.54748062157676        3.07230843464480        1.21553394177427
H            2.15362910227499        2.55221869477751        0.98242456620182
C            1.68263866189796        0.28021273360610       -0.01524384237339
C            1.28675079473424       -1.07357294020837       -0.32736658633226
C            2.46336868869445       -1.76855964480690       -0.50612028201031
N            3.55660106505519       -0.96405651125049       -0.36549235123877
C            3.11703277473405        0.24483824622159       -0.08098857288035
N            3.97095942035899        1.31627382436091        0.14971942962488
H            4.93290562240621        1.03241900691272        0.00687128251300
H            3.74699405837089        2.13774422381754       -0.39946599508979
H            2.61165904428670       -2.80906538527621       -0.73458511459286
C           -0.08389052195546       -1.43337460760444       -0.24167964220364
N           -0.42936868057741       -2.78652271015160       -0.31359541586941
H           -1.33447802595748       -2.96891209276797       -0.72431208010282
H            0.29887406251576       -3.34542365049212       -0.73335354904327
C           -1.00930754866298       -0.44409469133939       -0.01365706343756
H           -1.05180100422369        3.00850726992144       -0.05332395380856
H           -3.20554831188370        2.95163120594713       -0.94093708374957
H           -4.61162573815583        1.02207340922079       -1.13786078904544
H           -1.70138676454588       -2.34495493864069        1.51209634722879
H           -3.42105710547023       -2.05934658118002        1.57872876978771
