26
 energy: -42.424138538975 gnorm: 0.000410797560 xtb: 6.6.1 (8d0f1dd)
N           -1.80060968347458       -2.41271466751453        0.85925572896089
C           -1.96932110562899       -1.24201235835184        0.21387027496207
N           -3.17344737055847       -1.01499375535741       -0.21805427694421
C           -3.72169421497827        0.13336674802574       -0.60210859995786
C           -3.30737614655221        1.40337021698600       -0.28274382125920
C           -2.02785722926790        1.76772648891721        0.16013026107536
C           -0.85947083503592        1.01464755789036        0.19581738403097
C            0.35469275543071        1.73522325364809        0.36826415945855
C            1.55634827084692        1.11926633079752        0.19605746982627
C            1.62962847790899       -0.30182104781944       -0.11267634737045
C            2.98572750959728       -0.57051832418466       -0.24879970035118
N            3.61285310479324       -1.77458210906861       -0.47530851479581
H            3.10074513941421       -2.43863550419002       -1.03484070400312
H            4.58315859225772       -1.67261703049780       -0.73122115762170
N            3.73854878820316        0.55697697528112       -0.04152522884816
C            2.92025617093130        1.54952007281509        0.21665125176991
H            3.28983368282900        2.53936857289528        0.41053313568642
C            0.44685290836076       -1.04802289160362       -0.13687716587926
C           -0.76882106835314       -0.42749416125107        0.02108311805884
H            0.49520489522817       -2.11817281407152       -0.29279818305832
H            0.30265361179686        2.79843475318010        0.56164013882576
H           -1.90018288585851        2.82349709871492        0.37103567495819
H           -4.00993260870006        2.20952211828724       -0.44585172833692
H           -4.67089478547494        0.00091984473959       -1.11038835197159
H           -2.61039750939097       -2.98039600703927        1.04132117869326
H           -0.91315295472402       -2.65943851082928        1.25809181049104
