29
 energy: -55.991168217282 gnorm: 0.000457864486 xtb: 6.6.1 (8d0f1dd)
N           -4.37716665058060       -2.58423495037152        0.40001850483845
C           -3.76720734820530       -1.61754290781780        0.26590445813079
C           -3.07519531115753       -0.42185651895559        0.09656949744293
C           -1.68182001765277       -0.22207367687759        0.08273604231455
C           -1.45308017711880        1.22529885182088       -0.12035180386124
N           -0.22844774672706        1.74823104811894       -0.13834587233221
C            0.81832842466577        0.96428447525798       -0.01882564263656
C            2.04459466069974        1.67636381232044        0.10687043854608
C            1.90803983178708        3.08687267831572        0.16212746671878
N            1.86714669416067        4.23132543022833        0.21553614549194
C            3.34708350472683        1.20501958218374        0.22591918325177
N            3.84132828775563       -0.00183903160702        0.07675386539567
C            3.19354435081574       -1.13719183157960       -0.10214901739075
N            4.00361416000610       -2.17650166307904       -0.39091573558286
H            4.99282881157042       -1.99801206180223       -0.41424800398065
H            3.65834741820438       -3.11728168669139       -0.47040690372085
C            1.78573611896946       -1.40186275713061        0.03388531918558
C            1.48677890008874       -2.78307380210284        0.09671428851597
N            1.32357989302279       -3.91985266626569        0.13957205575249
C            0.70746924078795       -0.51044471832909        0.07372291018642
C           -0.59370294577013       -1.05075893091485        0.17086579764044
H           -0.72258112512359       -2.11917082392611        0.27867867239595
H            4.11246372392065        1.95091266131758        0.42128094472411
C           -2.67100102641858        1.84603587710522       -0.23643400169856
C           -3.68142000473897        0.84507615778010       -0.09937596130229
N           -4.99840837815249        1.06669009210491       -0.14974669322565
H           -5.35666408627955        1.99550774964023       -0.28762940644277
H           -5.64234122976613        0.30112048136126       -0.03763147956296
H           -2.84780903089051        2.89121961359554       -0.39544170249447
