26
 energy: -52.031559192203 gnorm: 0.000634504955 xtb: 6.6.1 (8d0f1dd)
N           -4.20708917717894       -1.54591364901278       -1.15408554258631
C           -3.42987841920724       -0.79404344080985       -0.76153798463825
C           -2.56664631957348        0.18933756437386       -0.28341740738409
C           -3.01923053261115        1.48206180968374        0.17109485099963
N           -4.29756064489242        1.85847587131429        0.15949029420578
H           -5.00264969552370        1.22870402652562       -0.18865229323724
H           -4.57185117285190        2.76048663189574        0.50898878918447
C           -1.92194274041352        2.23660056946272        0.62856890509410
C           -0.77971084858800        1.48163499299190        0.44470352423759
N            0.48483098654185        1.82192419773848        0.62206425409790
C            1.40202856458317        0.91089784224578        0.37096440042577
N            2.59760867725354        1.27987197589898       -0.00937696857299
C            3.68596867846118        0.53462483363177       -0.18703860717673
N            4.59110967593239        1.02530162455755       -1.04667557644634
H            5.48864689549090        0.57912528916562       -1.11250608521628
H            4.43270825402053        1.92556969033536       -1.46334489123707
N            4.05020084732850       -0.55784386551141        0.49615968199985
C            3.15557854423245       -1.35630964691674        1.02745426578482
N            1.89069699733754       -1.47048574401454        0.70725209768681
C            1.05438206234270       -0.55832084372336        0.29487635491380
C           -0.24400135163111       -0.87291276783859       -0.16110814983758
C           -0.57801906749337       -2.20172010187121       -0.49469632460771
N           -0.82888513439942       -3.28058812120362       -0.79162070419175
C           -1.18994381535528        0.15127179279019       -0.11239168314247
H            3.53783294095586       -2.12489842244045        1.68972295778477
H           -1.96482498478459        3.23367214463821        1.01855751037987
