32
 energy: -54.357060605484 gnorm: 0.000802866963 xtb: 6.6.1 (8d0f1dd)
N           -5.71428116414679       -0.03987547183820       -0.15513078010654
C           -4.56714759449110       -0.09026257687930       -0.06732644891363
C           -3.16358019847454       -0.15801633015040        0.00285694846844
C           -2.60296175719043       -1.45251692560921        0.01844667502617
C           -1.24586588294849       -1.78296911915112        0.04161068410846
C           -0.06870401274059       -1.04062348134940        0.04147023792270
C            1.12533350979877       -1.77996401969963        0.05120077860028
C            2.36596890436860       -1.18206153508858        0.03564997464273
C            2.45647680207726        0.29188068233492        0.00812941191032
C            3.78507474874036        0.63382105171172       -0.00900586827588
C            4.53661745680216       -0.57842994252862        0.00986698154964
N            5.88427736063157       -0.63679430662914       -0.02646295764789
H            6.42098205799652        0.20771733374026        0.05938234621407
H            6.35140684400469       -1.51785171256653        0.09294636300723
C            3.66523469303368       -1.67786248197206        0.03657887326327
H            3.95752684586949       -2.71046919607290        0.05426603930482
H            4.20064665239755        1.62329491403973       -0.03080754618395
C            1.27009994247811        1.04388313533152        0.00939909373600
C            1.39669078436317        2.44322794869381       -0.01243174999993
N            1.53339387356747        3.58582665307760       -0.03405473079133
C            0.00032625506223        0.43023617723737        0.02997673497993
C           -1.10263054661741        1.28252243206185        0.04640494353697
C           -2.48161996877665        1.08150276041940        0.04302803244223
N           -3.25151246322218        2.20787544940735        0.10705313224855
H           -4.24608939815371        2.14519392713965       -0.02450322467941
H           -2.81561862231576        3.10528454486103       -0.00527669299846
H           -0.83295079060933        2.33459043524791        0.06007204319144
H            1.06198410673254       -2.85983259447527        0.06679952447218
H           -1.07837100539194       -2.85611910615035        0.05595594307198
N           -3.47666022869029       -2.50522329280580        0.05313669063681
H           -4.45692027905111       -2.33995826623663       -0.09814507448734
H           -3.13135397950355       -3.43368706290120       -0.10903912074998
