32
 energy: -59.175693569171 gnorm: 0.000642327246 xtb: 6.6.1 (8d0f1dd)
N            2.28035888135746        3.59773236404875       -0.07068776367849
C            2.22823773380977        2.44854652454080       -0.05763360893709
C            2.27491147947516        1.03774115912336       -0.04880292986657
C            3.59954040408427        0.52610724488502       -0.13377014979800
N            4.03210378795320       -0.71441250739343        0.04182628918287
C            3.32570818059610       -1.81927196263667        0.14912226452472
N            4.07299841411984       -2.92607890172336        0.37705436068611
H            5.05934626094859       -2.80942635968569        0.52614751062113
H            3.64917759942942       -3.81956577621954        0.54557017841992
C            1.93228914553524       -2.01402060992880       -0.01178373916915
C            0.89304885838604       -1.10702401071095       -0.07836699331840
C           -0.40499164186614       -1.66003048223325       -0.18340689258942
C           -1.52279683896328       -0.87558962056958       -0.11077851381013
C           -1.38308566071340        0.56732287220488        0.07312745355739
C           -2.66783558532428        1.11274001196419        0.14588697718211
C           -3.03349296557586        2.44254087138198        0.32367932674117
N           -3.38624540622747        3.52858498698490        0.47200513760414
C           -3.61015630785426        0.03706907585076        0.00638546264711
N           -4.94091964180965        0.18503344644517        0.02785148170656
H           -5.34533593670622        1.09842473618353        0.14516500968748
H           -5.54148234740877       -0.61483729314164       -0.07587655240269
C           -2.90673733094322       -1.17512980922134       -0.15129213031240
C           -3.48629447156552       -2.42875832748374       -0.31115200745969
N           -3.98264447329015       -3.45994240845853       -0.44061905042628
C           -0.11991493795312        1.13443117590117        0.12084800653317
C            1.03165010720867        0.35831388413094        0.01553715870758
H           -0.03230575680252        2.20675387273131        0.22001925749560
H           -0.50570889274594       -2.73088576046266       -0.28898455781599
H            1.63657621958771       -3.05657114697940       -0.04723100145849
N            4.60655075080088        1.39775082597862       -0.37318737731847
H            5.54514489172468        1.04141023250966       -0.35627452118934
H            4.44187590673270        2.38625832168377       -0.44346126634639
