31
 energy: -49.012727168825 gnorm: 0.000659391746 xtb: 6.6.1 (8d0f1dd)
N           -3.43262943722861       -2.38113145025962        0.42523530974064
C           -2.84769350647289       -1.17987110817701        0.14094340741533
N           -3.53315807211969       -0.08274535760846       -0.08173859929698
C           -2.62688106568350        0.94414826374351       -0.23854123338260
N           -3.10620626345135        2.22039153635531       -0.51064775370010
H           -4.11652707566514        2.23096957364561       -0.45268517427214
H           -2.69439339269096        2.94557246554499        0.06213094365164
C           -1.32126309541886        0.49869468107175       -0.12857726244660
C           -1.42076884515411       -0.91798206140204        0.13804040172687
C           -0.31562818899299       -1.69265807181320        0.25872498352281
C            0.98333731523329       -1.12181379616419        0.10204002465655
C            2.00103625180458       -2.03372991319543       -0.09763302657794
C            3.33786206729440       -1.84587493843500       -0.50422112914097
C            4.05311795054324       -0.68702355111248       -0.48591170306294
C            3.63629088108924        0.55937480516874        0.02434262131805
C            2.37032590855792        0.98729071893161        0.33292396100619
N            2.26942404111167        2.19308340334058        0.96614495419864
H            1.37788958132630        2.47592011550974        1.33428161521593
H            3.09737364019888        2.59428506312284        1.37179477814319
C            1.09188885665423        0.33416863815084        0.03293254019656
C           -0.03961665402252        1.10426544210911       -0.17491347723612
N           -0.00231782876461        2.48762290016397       -0.39860180554608
H           -0.81362210950073        2.79493257695478       -0.91686534032056
H            0.85597713633823        2.80923278683703       -0.82482277630297
H            4.43390562230909        1.26169772262191        0.24254300432234
H            5.08992502801465       -0.73848602994860       -0.79510093044114
H            3.85339632462396       -2.74092437383467       -0.82904425380844
H            1.70365456394372       -3.07402924917805       -0.02388902681803
H           -0.39436428018041       -2.76386943973289        0.39072014505528
H           -4.41110575602755       -2.43995650964066        0.19280454981332
H           -2.88669253546881       -3.20339450277018        0.22538438377027
