28
 energy: -46.669552119660 gnorm: 0.000643180421 xtb: 6.6.1 (8d0f1dd)
N           -1.12186879947631       -3.66261744473544        0.11306888790895
C           -1.12263353030494       -2.51095971962555        0.07827798676813
C           -1.21560851358292       -1.10779738232702        0.03534242734132
C           -2.52641667446324       -0.62981679434739        0.08787897695386
N           -2.98813643188104        0.62288468170827       -0.09410312063751
C           -2.30660569770364        1.72881002712013       -0.11349960692148
N           -3.03949259647442        2.84239329025881       -0.35616160823654
H           -4.02204920967409        2.73537073234633       -0.53318493224851
H           -2.61950919877624        3.75140965632205       -0.40563745364227
C           -0.90706126055468        1.94719172975213        0.12581191569245
C            0.13212281222135        1.06057187570786        0.14373907476867
C            1.44060765658297        1.64978389544126        0.28671404175141
C            2.56067912068686        0.91255374193503        0.13406195177751
C            2.46556525322787       -0.52229828514376       -0.14147301512703
C            3.74235589060527       -1.00123431209049       -0.25918200992929
C            4.65411644751811        0.09656258202440       -0.06308744916039
C            3.96446367406970        1.24170155399310        0.17179111017074
H            4.36182567490845        2.22206751985103        0.35498616648655
H            5.72512920992836       -0.00217537784101       -0.10127820141675
H            4.03613718830394       -2.01492241780482       -0.45882508570688
C            1.19400725692915       -1.11969172125242       -0.19216130790588
C            0.04163029226672       -0.38994271819370       -0.03200278791696
H            1.13228112143509       -2.18826893193221       -0.33929860052551
H            1.49490041505078        2.71417377257669        0.47429404246621
H           -0.64651238736842        2.99282586013565        0.25005842720221
N           -3.54699343060282       -1.50311002893143        0.31263364290323
H           -3.38009594400769       -2.49408513620923        0.29534600613302
H           -4.47988919216405       -1.15640463133836        0.17952091005070
