27
 energy: -51.752182645310 gnorm: 0.000808070094 xtb: 6.6.1 (8d0f1dd)
N           -2.11157137727378       -3.63495254085487       -0.11459754923256
C           -1.83842920072426       -2.51892922024514       -0.07659148861256
C           -1.61806404689424       -1.12369782993778       -0.01670633706879
C           -2.82380955811886       -0.37826838662861        0.15583507208472
N           -3.02240934648877        0.91268200576426       -0.05070087789450
C           -2.13026583366038        1.86710752319259       -0.19703786915706
N           -2.64030595259176        3.06984026442395       -0.53017602532328
H           -2.05533968951955        3.88104504873408       -0.61450305430010
H           -3.63295337713423        3.15228022380310       -0.66049506725153
C           -0.72837642548350        1.80715531441730        0.03327243238446
C            0.12241649843887        0.72799694612216        0.10012237839426
C            1.51082462864752        1.03454302369823        0.27931222503837
C            1.91797300845859        2.35484953871579        0.55381417157833
N            2.23251131982651        3.43521487685051        0.78322737673213
C            2.46079597734190        0.04561423071684        0.12291864905516
C            2.03965846610478       -1.33421639010209       -0.21094941028046
N            3.14468944174026       -2.07034943170886       -0.33829296408124
C            4.13601614692575       -1.19889825804368       -0.09700802704236
N            3.79863137581508        0.06147078054759        0.18058891201167
H            5.16592548448330       -1.50583496163467       -0.12724645542993
C            0.70290517201482       -1.65630040636516       -0.29706512511554
C           -0.27973452463130       -0.68122213188802       -0.09622000790228
H            0.41565697960702       -2.68005496442974       -0.48348025457071
H           -0.25564872603635        2.77896285714827        0.12488325244635
N           -3.94622214712041       -1.04621523388244        0.49442583020652
H           -3.95770134144487       -2.04843396383897        0.57314023265059
H           -4.80813198268221       -0.53062197717454        0.51956715698033
