27
 energy: -51.746979490929 gnorm: 0.000634112959 xtb: 6.6.1 (8d0f1dd)
N           -5.44685984778225       -0.84449986729754        0.67239634018262
C           -4.35901158998534       -0.56173952462842        0.42604737132376
C           -3.03215979108206       -0.22252575042972        0.11318136184426
C           -2.15936256214013       -1.31396817680196       -0.26470315772042
N           -0.86739413919412       -1.34314947815636       -0.18771986504028
C            0.07013424567570       -0.40852648268944       -0.08542594827706
N            1.26606245967274       -0.86246495442048        0.19976330882320
C            2.30437161290638       -0.03214253923961        0.14576264934119
C            2.18524073431509        1.37313688621888       -0.28653653091679
N            3.42406782792735        1.96263439135901       -0.34675682285797
C            4.27299682532142        1.03585732240924       -0.00345236053974
C            3.66633997707647       -0.23978424755291        0.30262444896371
C            4.35152499030699       -1.39202438617298        0.68029017880326
N            4.94861861548438       -2.32376649541268        0.99147243152510
H            5.32875097790751        1.24154463871941        0.03852999985080
C            0.96086576288568        1.86965801752390       -0.58169083553171
C           -0.18037672059299        1.03406592655580       -0.35548204552676
C           -1.39348994702888        1.64779123783150       -0.19753913285908
C           -2.67076094239026        1.12222937082653        0.15911772898338
N           -3.60519797579411        2.03450422624266        0.50943181865923
H           -3.37970602995254        3.01208678782107        0.54638813370549
H           -4.53174688296020        1.73975664798680        0.76692913605177
H           -1.37697310383921        2.73243470959795       -0.26332251051228
H            0.82483518591226        2.88442177156022       -0.92835406683048
N           -2.74830518945108       -2.45988414391330       -0.66612748354740
H           -2.15239175087461       -3.25835418871767       -0.80530339438041
H           -3.74214884932340       -2.59072705341909       -0.58672056321760
