32
 energy: -59.947675429393 gnorm: 0.000580475989 xtb: 6.6.1 (8d0f1dd)
N           -5.56285373059490       -0.33937815551547       -1.04071451080932
C           -4.49672950856782       -0.12594519984559       -0.66560409158557
C           -3.18623129891919        0.15034397395446       -0.22676285924496
C           -2.83370367063979        1.49761091360405       -0.15065594462790
C           -1.58129137028110        2.01373672037435        0.28079492001599
C           -0.34530206225125        1.42550879033135        0.36911489256585
C            0.75667631325559        2.32392476977418        0.59574746370422
C            2.03162973754190        1.92020780365920        0.39857676451985
C            2.31813120609378        0.55792602197415       -0.03094605408527
C            3.68024717829033        0.47226452614618       -0.24949496256639
C            4.42808902466923       -0.61819372900755       -0.69318725634342
N            5.09194940543022       -1.48045913827754       -1.06429631536403
C            4.26297000901823        1.76974444050958        0.06527854976364
C            3.29131043885849        2.62561338220433        0.45163997494976
H            3.40406729695241        3.65135900033249        0.74610454391375
H            5.31559261307355        1.97273538480346       -0.01204128879825
C            1.25627087548403       -0.37442676151374       -0.10044567806511
C            1.53921953839022       -1.68837262395347       -0.53526624095354
N            1.77539607379267       -2.71417287709678       -0.99184773162197
C           -0.05106251601540        0.01726803478437        0.17210384042266
C           -1.04059266865357       -1.00827934464740        0.39580553021142
C           -0.54397194613060       -2.21354263759706        0.94021719599789
N           -0.23663441049699       -3.17358835519912        1.49323187180631
C           -2.42003001897796       -0.98591638772870        0.20194003090246
N           -3.12168659301749       -2.12473752786397        0.41648110205272
H           -4.10595020686635       -2.16394492445741        0.21597727450030
H           -2.63470345531534       -2.97970553345574        0.62685752217206
H            0.53353281938996        3.35094235522072        0.84871329171490
H           -1.59853261351038        3.08431795579243        0.45514746923120
N           -3.76819190405124        2.42725026101959       -0.46357526985499
H           -3.53078398117621        3.40259590856330       -0.48264946997067
H           -4.66865015047271        2.14597401401576       -0.81276341185247
