28
 energy: -51.470256602263 gnorm: 0.000975046524 xtb: 6.6.1 (8d0f1dd)
N           -2.68538884274694       -3.37010446091807       -0.00272372278098
C           -2.33615547319277       -2.27380870512138        0.00959374244655
C           -1.98586238310828       -0.90830576515539        0.03222915893133
C           -3.09559668026235       -0.03738983090463        0.15278664959944
N           -3.15101700336597        1.28178174198983       -0.02752325147842
C           -2.16702087420133        2.13915534904819       -0.12835197145291
N           -2.54380813409382        3.40572715008155       -0.40185054108687
H           -1.86991188437197        4.14344454582211       -0.49130317953590
H           -3.51937804970627        3.59918130362269       -0.54319631400192
C           -0.77087902636352        1.92390986551064        0.07453137724197
C           -0.05579750754959        0.75547207923084        0.11268773227897
N            1.27942386582317        0.98188167145065        0.24736099733062
C            2.10014329877830       -0.00956984039168        0.10708720780247
C            1.67421899316916       -1.40138104453308       -0.17801179133889
C            2.81742503599460       -2.16574906513550       -0.29033367625490
C            3.93344769923347       -1.32511593792382       -0.08610846880492
C            3.52909518457231       -0.01679543966339        0.16125153015617
C            4.34510706490031        1.08662945701720        0.40389004602866
N            5.02491672554293        1.99295709804750        0.60214618503620
H            4.95951229253315       -1.64919885441429       -0.11463380733450
H            2.86433120215544       -3.21911317265078       -0.49391612400167
C            0.30777129123723       -1.64980048706484       -0.21587146006755
C           -0.59589010159277       -0.60695104764314       -0.04272980651057
H           -0.05565216720846       -2.65868358343862       -0.35432528101121
H           -0.16021151608515        2.81404645300717        0.16091916224869
N           -4.30969272909463       -0.57320101805773        0.41923433904919
H           -4.44122830001473       -1.56740991186938        0.48014291249431
H           -5.10444367348159        0.04018893795739        0.40634964961668
