31
 energy: -49.839066320044 gnorm: 0.000483314834 xtb: 6.6.1 (8d0f1dd)
N           -4.26773874787067       -2.59351516259683       -0.06840850536231
C           -3.67572883530021       -1.60313435874731       -0.05511471102886
C           -3.00319666728571       -0.39152926951461       -0.02770864079013
C           -1.61350271065206       -0.17561078719134       -0.01998650472585
C           -1.39923642381479        1.27374531608270        0.03125851430361
C           -2.64662131385004        1.89080202044013        0.05572016221376
C           -3.62887641045046        0.89062544727166        0.02028405384848
N           -4.96815531875231        1.08039354329167       -0.01137233409936
H           -5.34384212610973        1.99156432186694        0.18258823794070
H           -5.57109678263711        0.28251824612836        0.09490765930814
H           -2.83781634857976        2.94703153454659        0.09474134743639
C           -0.10361456468168        1.75531951540862        0.04642103953662
C            1.00846278431691        0.90600125623516        0.01983740889075
C            2.25993667345705        1.52433298822157        0.02128324118032
C            3.56542422549398        1.03418611028469        0.00585174146050
N            4.57389853164319        1.97683952504725        0.07141677877053
H            5.49691739856077        1.68742025088592       -0.20485480021308
H            4.33462132448814        2.92399087627636       -0.16885443755522
C            3.96703219682252       -0.30134971840684        0.00503040851717
C            3.18290024533040       -1.44850167530374       -0.00064890438836
N            3.84922401761812       -2.65526835895498       -0.06186781747339
H            4.81933937443545       -2.66691698991008        0.20365881302999
H            3.32960629824712       -3.48455932842045        0.17041252182899
C            1.78420379938921       -1.51722465956685       -0.02235711198097
C            0.78681764036242       -0.55042265230666       -0.01796291942587
C           -0.53619490589548       -1.02751175084078       -0.04226515952986
H           -0.70653215669985       -2.09506003048802       -0.07642410903910
H            1.40501479582373       -2.53456005200783       -0.04589643141966
H            5.03908185644426       -0.46629967377259        0.00883432179767
H            2.20724641459099        2.60902306451484        0.04012383238202
H            0.05957643235551        2.82418846122641        0.07953651478638
