31
 energy: -55.448950630109 gnorm: 0.000435335696 xtb: 6.6.1 (8d0f1dd)
N           -2.86890055146663       -3.08131480140519        0.00226435721473
C           -2.69037998055710       -1.94578717915599        0.00152166601602
C           -2.59690854709022       -0.53036912902470        0.00134850783918
C           -3.86964815387942        0.08991576476071        0.00235420675196
C           -4.12072173940346        1.47200800856314        0.00190322563027
C           -3.22695452447940        2.51659020811043        0.00057979686655
C           -1.84001535974174        2.48689357819569       -0.00066032427477
C           -0.93227606726669        1.42699342927220       -0.00101130740220
C            0.42343050498947        1.79643459220567       -0.00242396950488
C            1.43094687324883        0.86143188080299       -0.00299100252938
C            1.08883227807517       -0.55555993823773       -0.00211362763153
C            2.28715115087376       -1.28532219786459       -0.00294734059188
C            2.45375748015086       -2.66685463539751       -0.00261732072428
N            2.64371298791492       -3.80220409778972       -0.00229952354468
C            3.36542866111328       -0.35090516996993       -0.00435412655702
N            4.66579395783448       -0.67218968480721       -0.00546166205420
H            4.94610831744494       -1.63800225746516       -0.00537715818277
H            5.36541956966319        0.05003372147574       -0.00647885456022
C            2.83628748953684        0.96655840571547       -0.00444490715254
C            3.59777683381185        2.13009675448161       -0.00591290252974
N            4.25436312924732        3.07608862494550       -0.00625869398897
C           -0.23878719689122       -0.93895764052712       -0.00071243937866
C           -1.27888980856477       -0.00471159628868       -0.00008991783281
H           -0.46823678530992       -1.99470150089680       -0.00006407550039
H            0.67756087056895        2.84702432976732       -0.00309337645408
H           -1.37285904206164        3.46487610591856       -0.00153405371059
H           -3.66782856817547        3.50526238315613        0.00050413187184
H           -5.17054091299098        1.73989070353745        0.00275824743767
N           -4.96991590553410       -0.70959113159028        0.00436688460980
H           -5.88626072120792       -0.30143324002776        0.00332695913616
H           -4.88530325055320       -1.71066552226024        0.00332085173145
