33
 energy: -63.695982523416 gnorm: 0.000663651260 xtb: 6.6.1 (8d0f1dd)
N            2.46951271588997        3.77723638406566        0.07633342128765
C            2.37804444331334        2.63088170489143        0.06058563203587
C            2.37448554608122        1.21854048863713        0.04781776872325
C            3.68328509412695        0.65991521922061        0.16049529003988
N            4.07561825861634       -0.58643926535445       -0.04341880199859
C            3.33177993377982       -1.66183027734120       -0.20689139909955
N            4.03101760199262       -2.77617607490073       -0.51045342946204
H            5.03149645589818       -2.71141269847753       -0.57262405849624
H            3.58274837578689       -3.67098170735543       -0.58638094871707
C            1.93153817230726       -1.81292338701526       -0.05169396963550
C            0.92431465527645       -0.87387372523979        0.04224347807898
C           -0.40657885450620       -1.38297546761253        0.15294636220273
C           -0.61293188844178       -2.76967523541036        0.29645923457894
N           -0.76450794283008       -3.90177929604933        0.41761344717498
C           -1.50599496105141       -0.54004171863682        0.08555402076438
C           -1.29219417674415        0.89560808851209       -0.09916584621655
C           -0.01061923554630        1.40642780589411       -0.14533440574258
C            1.11416162429291        0.58311151240767       -0.03550435222619
H            0.12183092530292        2.47426775124877       -0.24217356753372
C           -2.55070374097168        1.50836298774697       -0.16739061241664
C           -2.83992287585156        2.85836955855693       -0.34249136883556
N           -3.12580662177625        3.96365689762478       -0.48667326377746
C           -3.53840172118257        0.48713025198174       -0.02344309654430
N           -4.85951320005164        0.68054700595483       -0.03423696529501
H           -5.23559764860839        1.60693053650505       -0.14783858723746
H           -5.48368666911811       -0.10144207718062        0.07533984203894
C           -2.88925164110091       -0.76998439166912        0.13280178766314
C           -3.57901789142715       -1.97000094736255        0.29643657677181
N           -4.22648361153578       -2.91203541004070        0.42498334264348
H            1.60255979427693       -2.84590941047590       -0.04254313891852
N            4.70423992095714        1.49100940147891        0.46191620286211
H            4.56826642860224        2.48279350524449        0.55238259370740
H            5.63299759504242        1.10810407335087        0.45879100487941
