27
 energy: -47.734729150609 gnorm: 0.000331918396 xtb: 6.6.1 (8d0f1dd)
N           -2.81711255562528       -2.99219347823795       -0.00039374911507
C           -2.37257988071874       -1.93215975469445       -0.00050068091073
C           -1.92242661287608       -0.58840318620816       -0.00065436684345
C           -3.01693936291524        0.36728650338628        0.00046227101930
C           -2.87469954206604        1.73519793766440       -0.00087473078714
C           -1.67978957323616        2.49444944334125       -0.00311872703061
N           -0.44361409731694        2.15031436596481       -0.00311038864913
C            0.12876747831637        0.92255086953759       -0.00166556333651
C            1.51818122370334        0.96970563921404       -0.00082588717832
C            2.16587738136408        2.22386030975345       -0.00041589327581
N            2.74658219035866        3.21335523539239       -0.00055760958779
C            2.30675525710657       -0.20487654686827       -0.00025641658803
C            1.61920660589676       -1.49432579348248       -0.00102853166367
C            2.64186865214765       -2.51134982253703       -0.00069908961779
C            3.84317056111158       -1.87988204093664        0.00020542468067
C            3.65225902919923       -0.44928263831087        0.00049615304608
H            4.43977923964032        0.28053263105974        0.00112364067267
H            4.80934032695622       -2.35183190609216        0.00065375531969
H            2.45385362706110       -3.56768096923904       -0.00108563635126
C            0.26774149336119       -1.56410089947760       -0.00177305710924
C           -0.55053273438788       -0.38239584702331       -0.00148842934088
H           -0.22294687489055       -2.52764281320753       -0.00228974292420
H           -1.82093857448120        3.57230209568641       -0.00482350465217
H           -3.79241071208173        2.30964265630182       -0.00024847224520
N           -4.27212504909707       -0.14844636168739        0.00266538801653
H           -5.06121738996219        0.47194312466587        0.00328437762752
H           -4.43588027236804       -1.13969192346518        0.00340171412454
