28
 energy: -45.866033172315 gnorm: 0.000762116320 xtb: 6.6.1 (8d0f1dd)
N           -3.63592457537574       -1.55631185103433       -0.38389318366278
C           -3.00206463979598       -0.33218088005799       -0.15869150884800
C           -3.69472815879853        0.90495447892082        0.00447838163380
C           -2.79865259077388        1.91755490369572        0.20481550766360
C           -1.49007647762871        1.35403380001938        0.17220831143734
C           -1.63978440286638       -0.07356002975481       -0.07921816254763
C           -0.48997211078363       -0.88927979610686       -0.14690892302977
N           -0.65607059878299       -2.26293020684541       -0.34150611451150
H           -1.50126938086439       -2.46981387852944       -0.85478058202906
H            0.14764298625115       -2.72325328694231       -0.74667378112654
C            0.76634498368514       -0.31603706552980       -0.00454957065169
C            1.94250844109979       -1.12132252523720        0.27985430000771
N            3.15746967746979       -0.91719795413823       -0.15942459508860
C            3.63140877892620        0.20906440489764       -0.67225711173141
N            3.30153340270648        1.43261326076880       -0.39553742303385
C            2.12826081273443        1.80604842918723        0.12410041172371
C            0.91413561709465        1.13227520307559        0.14666847901402
C           -0.25574985763986        1.91421373049600        0.31060590189972
H           -0.14619523305943        2.97823236834572        0.46773156669979
H            2.11757290049796        2.85235194793630        0.41462268882377
H            4.51689494114463        0.08536408343848       -1.28948327492204
N            1.77484561494128       -2.23739543967646        1.01601796266289
H            2.59198697705613       -2.75269502740425        1.29577037793712
H            0.87568652099026       -2.46108161616916        1.40533553378577
H           -3.02230785037400        2.95541470333326        0.36503012568344
H           -4.76708327342576        0.99838536570088       -0.02605381119826
H           -4.63955579464554       -1.48701859611334       -0.27855330276499
H           -3.26682955618299       -2.32060069007661        0.16687097047357
