32
 energy: -63.969369230870 gnorm: 0.000610040033 xtb: 6.6.1 (8d0f1dd)
N            2.20030561666245        3.73821038257129        0.04900503115029
C            2.18726148251289        2.59005583515914        0.03531387720111
C            2.29497421365973        1.17865895588136        0.02832348573532
C            3.62505184649039        0.67200169145949        0.10317206448312
N            4.04839908841481       -0.57418535735777       -0.03015991880049
C            3.33655673268666       -1.68012354736209       -0.13944559256499
N            4.08065354573565       -2.78743045828473       -0.34194347816746
H            5.07938042145868       -2.68979497099598       -0.39018547466053
H            3.66336402508260       -3.69832435090617       -0.40220126268122
C            1.93572679986983       -1.87232401025373       -0.03401010597476
C            0.90564652857928       -0.95827141247807        0.02354158070124
C            1.06167700110331        0.50408888335940       -0.02603715847662
N            0.02266973708059        1.33230967950152       -0.09187526196609
C           -1.20228703936768        0.85083042404701       -0.06103286772445
C           -1.49887191117887       -0.59017501891296        0.06820562235101
C           -2.89239618519409       -0.74090525596277        0.09847987684557
C           -3.64219412482256       -1.91097675435244        0.21240086436148
N           -4.32215666218484       -2.83354902639666        0.30824785804212
C           -3.46339896456873        0.55540187176366       -0.01548570985249
N           -4.76722599892080        0.83184421072208       -0.02939558891703
H           -5.44291303767925        0.08933085914207        0.04749746175413
H           -5.07982414170154        1.78500905351371       -0.11587330935580
C           -2.41779869515446        1.53108391629786       -0.11729929371429
C           -2.65556841205590        2.89837843110516       -0.24689410175691
N           -2.93762969063771        4.00787150059134       -0.35400251460827
C           -0.43024373306410       -1.46798132815237        0.10208823872806
C           -0.65038815587713       -2.85849253295618        0.19011971933499
N           -0.81048900850421       -3.99328275581374        0.25895757103538
H            1.63287934830421       -2.91392805910830       -0.02075605982342
N            4.62040710663148        1.55854279641467        0.29953929763947
H            5.56505576026406        1.21664736100644        0.30504342517399
H            4.43456121477604        2.54500403416055        0.36035409121075
