25
 energy: -43.501344390223 gnorm: 0.000781361424 xtb: 6.6.1 (8d0f1dd)
N           -3.66891395820921       -2.56368658565603        0.00262793853928
C           -3.01640341372095       -1.61562709172168        0.00286970525131
C           -2.33080799347379       -0.40384386558194        0.00238517220969
C           -0.95858536419975       -0.15804766727165        0.00172445212703
C           -0.77877263176142        1.31492523985463        0.00174171187277
C           -2.03645099430698        1.90068610222771        0.00232485857934
C           -2.99255609454983        0.87153844771742        0.00271606123074
N           -4.32567924312691        1.01526255405635        0.00319263806618
H           -4.74580357647473        1.92741190918494        0.00404006254483
H           -4.91418686522999        0.19941089873048        0.00392685231115
H           -2.25559563235852        2.95206790771051        0.00248506906203
C            0.51699973850041        1.79161055637665        0.00118465005914
C            1.59546854573347        0.90068260611187        0.00066074347326
C            2.88188709941979        1.44959856007433       -0.00003417719928
C            4.12486137018062        0.83721172060923       -0.00067555912082
C            4.40068207334234       -0.52027173696959       -0.00066700708285
C            3.47146360008821       -1.56458274467546       -0.00001766560360
N            2.16714361737564       -1.56031300053769        0.00054802600145
C            1.29255704144375       -0.56563391875991        0.00081525617906
N            0.04442071622538       -1.00953646958613        0.00130416455927
H            3.88267404901955       -2.57144959746166       -0.00001697510662
H            5.44351545126299       -0.80952653443869       -0.00119192630113
H            4.97917905656097        1.50312185714990       -0.00120329993889
H            2.90291338430794        2.53539061600467       -0.00010415065080
H            0.70953405855098        2.85789068305176        0.00110817253743
