28
 energy: -51.457339275947 gnorm: 0.000738898659 xtb: 6.6.1 (8d0f1dd)
N            5.14295111843633        0.35465985374308       -0.12473328277630
C            3.99373931812094        0.35188384686870       -0.07822886000946
C            2.58335389667104        0.36305509036074       -0.02896200216620
C            1.99172805548381        1.64002573887327       -0.01433938885589
C            0.61715955106829        1.93539499741883        0.04228631745362
C           -0.51633592732995        1.14980431259681        0.00273281078314
C           -1.76436314712023        1.82331782487635        0.05749051094397
C           -2.92670686559697        1.11073972282704        0.09275396297945
C           -2.84127621230449       -0.37376395563614       -0.06561088338820
N           -4.03987665137510       -0.89209500882718       -0.19352819255379
C           -4.91410307319925        0.14871382530383       -0.07392770995034
C           -4.30913283999150        1.37823947536893        0.06613197110742
H           -4.78736670036089        2.33244100129113        0.16892933112889
H           -5.96949801948071       -0.05825135242824       -0.11031963140121
N           -1.68118047158745       -1.00297780755075       -0.11310212327297
C           -0.55155690080649       -0.32474095457042       -0.04545856094731
C            0.58204635333754       -1.17023491972393        0.01367697000391
C            0.22662148983546       -2.54509689753437        0.05436138919972
N            0.04908329422959       -3.67870166690327        0.09196237761082
C            1.96629785707071       -0.91484503101392        0.02455067346037
N            2.79360488900359       -1.98605809433534        0.07978156679418
H            3.79132889647639       -1.86609173896543        0.05805233088111
H            2.40964150136212       -2.91578620546963        0.08259158900569
H           -1.77127190193630        2.90673674847682        0.04599733205791
H            0.41653075356777        2.99972292682053        0.12953369314775
N            2.82294548638643        2.71451624115706       -0.01782995160079
H            3.81850001310904        2.59293785893227       -0.08537201241643
H            2.44734322423018        3.64406246944333       -0.06319558791908
