29
 energy: -56.000181845518 gnorm: 0.000926656828 xtb: 6.6.1 (8d0f1dd)
N           -1.82056465207392       -3.50974998230687        0.00022383999457
C           -1.90563835602267       -2.36490550358849       -0.00026363995106
C           -2.15696819858047       -0.96628086809509       -0.00033144817927
C           -3.51464668614250       -0.60230888644333        0.00019907377093
C           -4.00837098846393        0.72079980041892        0.00047424513859
C           -3.31342629008848        1.90147271973220        0.00047084836940
C           -1.93841272222777        2.13401294691386        0.00047653997973
C           -0.86441912469936        1.25431929752156        0.00010694040948
C           -0.95741951552815       -0.20733021597417       -0.00016815875778
N            0.10748245777183       -0.99792293502174       -0.00053012080833
C            1.31651428733128       -0.46192432245339       -0.00112906979489
C            1.54837423841156        0.99626153487786       -0.00117870310622
N            2.85489955588768        1.28577127236477       -0.00192199649021
C            3.48694346729163        0.10652486903656       -0.00225285091702
N            4.81512564529910        0.02019773494773       -0.00265439323370
H            5.35745706918365        0.86698691665068       -0.00280366833200
H            5.26663742135445       -0.87847498619395       -0.00245160183574
C            2.58369598889793       -1.02575066864265       -0.00181974455268
C            3.00211936617509       -2.35136145906159       -0.00162687191399
N            3.43213624391959       -3.41847570864570       -0.00354538858022
C            0.44504332331237        1.82861839009948       -0.00037117110847
C            0.62972251883048        3.22799279246577        0.00024013971650
N            0.78707132791608        4.36483075050147       -0.00078466649983
H           -1.65895060926541        3.18194710300731        0.00093926338205
H           -3.92093380828519        2.79773995230765        0.00023806210822
H           -5.08899706175074        0.79841290665589        0.00047776174164
N           -4.43755211208937       -1.59233724232748        0.00004063668039
H           -5.41761353803124       -1.37572878126234        0.00055599326985
H           -4.14898128783351       -2.55607346608490       -0.00035062249991
