28
 energy: -57.045993577625 gnorm: 0.000917892936 xtb: 6.6.1 (8d0f1dd)
N            3.26952384811248        3.13315878507502        0.16819534681932
C            2.82298944465756        2.07951461842619        0.09253547746872
C            2.41819806595145        0.71835931474050       -0.01745439207038
C            3.47245907646144       -0.20508092365307       -0.28058005582421
C            3.33240722424736       -1.59458223596005       -0.24292630915676
C            2.20565132408328       -2.34831962371624        0.02606616312948
C            0.87332022428445       -1.96867591671062        0.15817664420305
C            0.05137167046438       -3.06087229635363        0.54895787562780
N           -0.47664831065294       -3.98794318019778        0.96921286827507
C            0.27036079145839       -0.68887408336968        0.02520882041037
C            1.03531238647696        0.55625041100426        0.09427310337574
N            0.43991070451227        1.75770684568828        0.25605652369112
C           -0.85444747714765        1.83785306421887        0.24563807523309
C           -1.73367507365107        0.66537677645018        0.01519390344184
C           -3.01518384735811        1.19445675379255       -0.03742056376815
C           -4.23717344733076        0.55182368738384       -0.24474651876007
N           -5.25702751431837        0.05098047355552       -0.41121180097020
C           -2.83962393660210        2.60001964097875        0.20067065696539
N           -1.58780548802043        2.96610479343083        0.35775578263380
H           -3.63395349162363        3.32364277897222        0.25419169974877
C           -1.12903589602755       -0.59060187102228       -0.08802237871406
C           -1.95483171632800       -1.69571084655178       -0.40427353824643
N           -2.67913252694561       -2.50953513007632       -0.76134396190576
H            2.37720676873743       -3.41357478268426        0.12918815869928
H            4.24693437988410       -2.15452293013077       -0.39426419148585
N            4.69510830820680        0.30289964944327       -0.53789278973595
H            5.47641177528818       -0.30874554503698       -0.69500438791028
H            4.84974930027966        1.29746403610459       -0.52917459247506
