25
 energy: -48.297779305894 gnorm: 0.000914281755 xtb: 6.6.1 (8d0f1dd)
N           -3.84306138256665       -2.01960548427783        0.63973724658564
C           -3.12046051636755       -1.15076024839682        0.42470067334358
C           -2.34843389613950       -0.02103930108062        0.16042166966454
C           -2.92900996128083        1.27734932336980       -0.09848867551793
N           -4.24329892018911        1.50657656349774       -0.10489723312459
H           -4.60612890868648        2.42649076421993       -0.28576969393911
H           -4.88313566354620        0.74926233749840        0.07291639926260
C           -1.90163804001241        2.20542683664799       -0.32769369997316
C           -0.68528279899227        1.54428266284875       -0.22088132375560
C           -0.97061700933281        0.11718395930481        0.08317978937890
C            0.06603456482785       -0.82099084927199        0.14367662743474
C           -0.18517048829582       -2.19786565310613        0.31116558450221
N           -0.37113175411449       -3.31897253596306        0.46465719375098
C            1.37434376069466       -0.36698477647988       -0.08774845374256
N            2.30150473936497       -1.14965577330747       -0.57608091543513
C            3.58243974896798       -0.92783800302791       -0.74044937542781
N            4.37526369264422       -0.17673636852073       -0.00234101830364
C            3.89913499212331        0.82101225782229        0.71731585969523
N            2.79799742282237        1.50405588286523        0.52527483803426
C            1.65103184986963        1.11645897212757        0.01741051588430
C            0.61918479796475        2.01304818823642       -0.23642238757815
H            0.83325648553939        3.06678228742879       -0.32462011169822
H            4.57496131661870        1.23498054382235        1.45885481581720
H            4.06965705729097       -1.56343525591119       -1.47171890031019
H           -2.04075707440815        3.24861981125971       -0.53499250184705
