31
 energy: -60.226668308976 gnorm: 0.000881439947 xtb: 6.6.1 (8d0f1dd)
N            2.90470104353065        3.54876281451849        0.01530837839539
C            2.66070346617359        2.42676595008924        0.02938885983335
C            2.49752031076434        1.01575389968965        0.06387243208075
C            3.68309063770782        0.27496859560116        0.27170014313031
C            3.78187582025776       -1.12239169875728        0.18139632182790
C            2.79345861297826       -2.04163481396131       -0.07475564887189
C            1.40498128756186       -1.88475996438188       -0.16431518193350
C            0.77237656685842       -3.10217791491526       -0.53348521533251
N            0.40520668224598       -4.10868709978339       -0.94334884158097
C            0.60716907322341       -0.73113770262358       -0.01249718360482
C            1.14654209414025        0.63468607168531       -0.06910499812125
N            0.36660294248720        1.70231382548944       -0.22918571477046
C           -0.94503328188192        1.57018151430408       -0.22869581046027
C           -1.60432057426247        0.26520341850978        0.01091921957404
C           -2.97128396129877        0.49643606558565        0.05611750355401
C           -4.02744122865981       -0.38741944261192        0.26684541725001
N           -4.96233494318082       -1.03774286980571        0.42950947492896
C           -3.16966296301576        1.90840473703157       -0.18189696267936
N           -4.37406352695040        2.48318967729552       -0.22034274444924
H           -5.19972701439183        1.92474964394175       -0.07630237864760
H           -4.46686461320970        3.46993843194096       -0.38800670119109
C           -1.92600370397540        2.53959674294171       -0.35024900070422
H           -1.76530224487231        3.58364117804624       -0.52932069684252
C           -0.79306018243749       -0.86651251741212        0.11476017222568
C           -1.41374043565959       -2.09340277390334        0.44417141149562
N           -1.98329085593531       -3.01591939808853        0.81885133750503
H            3.13001800833319       -3.06443259089639       -0.19993441279500
H            4.78370468932626       -1.51956960981147        0.28837101354684
N            4.81957661467102        0.96256156951905        0.53158419115668
H            5.69312180630555        0.47819387523328        0.63093670620283
H            4.81263389576604        1.96808791772885        0.55066688967713
