33
 energy: -52.446578971240 gnorm: 0.000727259868 xtb: 6.6.1 (8d0f1dd)
N           -1.96246922868951       -2.84576337650963        0.85619676693460
C           -2.17259878225064       -1.63800159533034        0.24767815419997
C           -3.43456911948776       -1.37754317625230       -0.20373635608698
C           -3.91279226862827       -0.15728920157765       -0.72990381296472
C           -3.34966413603176        1.06013857259442       -0.56338659670814
C           -2.09701710777955        1.40934781887720        0.03967114355976
N           -2.05522447236228        2.73867083452246        0.45377539224085
H           -1.42193502345331        2.93548176644064        1.21377826499509
H           -2.96206613311984        3.16876086600249        0.55548156606093
C           -0.93946959862276        0.62544924383008        0.07823544664183
C            0.35343225867721        1.26938468438974        0.10266903113527
N            0.50999791338682        2.64347658378488        0.05561773656474
H           -0.22880814904222        3.15178151712310       -0.40942253562409
H            1.43707826366457        2.90232366024606       -0.25746322536550
C            1.49745980282613        0.50143578603267        0.08042056165404
C            1.45218502558700       -0.93201553705078       -0.08475976297690
C            2.77436751516848       -1.32829810256196       -0.23847118787499
N            3.62789327378763       -0.26766476856848       -0.13982622708821
C            2.89051373988411        0.81576418477484        0.04528571795917
N            3.46241166545678        2.08444815563386        0.15959468578732
H            4.47232972976434        2.00303573378721        0.14739066336728
H            3.15559151993079        2.58372830730868        0.98670475253163
N            3.27778771233176       -2.61209863490263       -0.38318655542140
H            2.68398492714156       -3.22974686477164       -0.91763071413280
H            4.23468692737045       -2.60687502219733       -0.70588688122452
C            0.20357766383616       -1.56087332055453       -0.08627796756604
C           -0.95883835643471       -0.83951487777087        0.03896347908532
H            0.16453390768438       -2.63523963521301       -0.19717431995630
H           -3.92183285283373        1.92053545499464       -0.89350496456608
H           -4.88844338317412       -0.19350407045785       -1.19778690156029
H           -4.16578632304345       -2.17103215065201       -0.10350197092295
H           -1.12136655941945       -2.97564103787232        1.39014709445363
H           -2.76779593342398       -3.38513702370086        1.12432978326921
