33
 energy: -52.446872356992 gnorm: 0.000807280419 xtb: 6.6.1 (8d0f1dd)
N           -3.92105910215995       -1.38885463971906       -0.33998947860396
C           -3.13221185719047       -0.28461499537657        0.01043476437065
N           -3.65134520789775        0.85964171109148        0.41439553256681
C           -2.61764882794870        1.71668519794414        0.64625794115967
C           -1.39777186015986        1.11774319901371        0.41163389042896
C           -1.70689185369634       -0.22459529035756       -0.02829367094903
C           -0.72264789204011       -1.12348477547976       -0.36722192917866
N           -1.08486826049117       -2.37420617709836       -0.84868648820398
H           -2.05067866984607       -2.39173038124431       -1.15325588989442
H           -0.44573023331475       -2.76729527222276       -1.52544620500017
C            0.64600558948690       -0.76534730085118       -0.09994551310224
C            1.56154349898475       -1.75064918908046        0.26867480722757
N            1.18583682317306       -3.07432788040272        0.30568175514197
H            1.78744857583517       -3.68353286932310        0.83640075947949
H            0.19794011681407       -3.27457751612611        0.36847021640996
C            2.91038256136292       -1.54848600311179        0.70008804571602
C            3.74787700919240       -0.51075535794411        0.44509039930104
C            3.46120481362084        0.67423675287410       -0.24891898583295
C            2.21672099325232        1.19424766081538       -0.49746546227224
N            2.13066137483321        2.29942779718549       -1.28473405592348
H            2.97356445298965        2.77725067667332       -1.55279712998630
H            1.26270908711724        2.80954152141834       -1.30860030786908
C            0.93768132943163        0.67733898327055       -0.01742576852512
C           -0.05977812382330        1.56939620166328        0.31793111684672
N            0.17854581634484        2.94889857488185        0.47332922725471
H           -0.60862802834191        3.40856257782068        0.90881263027696
H            1.04206513389950        3.16278468367524        0.95479293705673
H            4.31046752589840        1.25189876298904       -0.59304736198080
H            4.77656629226009       -0.62955000440492        0.76441305830703
H            3.34251295502360       -2.39858120989390        1.21609677535239
H           -2.83696665190286        2.71784520675903        0.97328315424328
H           -3.72867659735793       -2.20258092132155        0.23437423367712
H           -4.89883391504963       -1.13562436421758       -0.25217581679367
