28
 energy: -51.480169905973 gnorm: 0.000918110182 xtb: 6.6.1 (8d0f1dd)
N            3.04808844684932        3.02839602649478       -0.02693206277909
C            2.72136936683376        1.92656632948999       -0.01389094669288
C            2.42302826689309        0.53974447754340       -0.00192456188739
C            3.59358422297973       -0.27001365969930        0.00537378252081
C            3.63614943066033       -1.66737535594041        0.00366396955865
C            2.59264962129633       -2.57428550608784       -0.00318532773641
C            1.23534707672680       -2.34255132021230       -0.00553285762793
C            0.49179523712946       -1.14890947280543       -0.00158418522495
N           -0.81596103469229       -1.38293944748937       -0.00174273490175
C           -1.65704020004100       -0.36403749098117        0.00049397379715
C           -1.20860721016234        1.03929041101591        0.00218123760417
N           -2.25126901276514        1.88772319261538        0.00522998210039
C           -3.34184338441995        1.11800401636886        0.00507852160185
N           -4.57320798385869        1.63174879932921        0.00774583120215
H           -4.68796890315974        2.63003309022708        0.00936545895027
H           -5.37529779166787        1.02576150887192        0.00655292291607
C           -3.04581331778925       -0.30045283836111        0.00217723023289
C           -4.00932592053448       -1.29916332012995        0.00037760758443
N           -4.86104836890481       -2.07398391755913       -0.00024894429744
C            0.13979905220072        1.28976209064001        0.00101289948656
C            1.05152636270300        0.21315661034250       -0.00022726232194
H            0.49454996625334        2.30940282494538        0.00228409931724
H            0.59375261223839       -3.21441805948692       -0.00988156214898
H            2.88796568115330       -3.61582131759241       -0.00620148908016
H            4.63413734098336       -2.08922138839955        0.00735126497803
N            4.79476638356914        0.36532288110943        0.01775814779027
H            4.85482133498699        1.36804118049799        0.00036572544880
H            5.64320399823836       -0.16895543754698        0.00061864870913
