24
 energy: -42.989726195558 gnorm: 0.000918036272 xtb: 6.6.1 (8d0f1dd)
N           -3.99228416957523       -1.64452657541484       -0.58395528969324
C           -3.14186391906162       -0.72765648258298       -0.07350311408017
N           -3.64950257178900        0.47279242730966        0.10067343890477
C           -2.95457440786819        1.55185770005778        0.45078297319567
N           -1.70432895634899        1.83813876755781        0.31193818699525
C           -0.65748631564934        1.02142291284645        0.13113394270515
C            0.54412560691820        1.58039740147155       -0.26159654171164
C            1.69625918482869        0.79695960572098       -0.21754682932377
C            3.04032464825950        0.98297372976667       -0.40992400777595
C            3.65286966194806       -0.24378003647595        0.00460687306402
N            4.96424982133114       -0.50918081257250       -0.02385171874215
H            5.62660265833639        0.18560725373871       -0.31715353513031
H            5.28096337046112       -1.39777744918984        0.32205534150390
N            2.78114371686729       -1.15905192264117        0.45326080974750
C            1.57706265837844       -0.59058573455251        0.33492006687414
N            0.43586098978709       -1.14673022005563        0.62743683034792
C           -0.68850804498779       -0.43938321720053        0.40926781231215
C           -1.83786440170689       -1.18576745289626        0.28653759823423
H           -1.69360824939606       -2.25814505851800        0.33732211374328
H            3.55736867244361        1.84823830812991       -0.77675654949198
H            0.57832243863827        2.62790356671442       -0.52342845804003
H           -3.57907074484166        2.37715487939856        0.78586140188595
H           -4.93206891058359       -1.35747467123741       -0.79334243693902
H           -3.73519950288966       -2.61095457697499       -0.65824184228549
