27
 energy: -46.948550166572 gnorm: 0.000925913940 xtb: 6.6.1 (8d0f1dd)
N            3.73388210164110        2.70785110556238        0.83545656143376
C            3.20103327606868        1.71848960237920        0.57765654656173
C            2.61722610622452        0.50014871573849        0.25821487968763
C            1.25654731113916        0.17632564672197        0.20095231821095
C            1.16387572871741       -1.24710580526379       -0.18833679868433
C            2.45655867697380       -1.72805171286421       -0.35677111192476
C            3.35326534965028       -0.68044563660090       -0.08983296168258
N            4.69332398012259       -0.73705222891696       -0.14544688412891
H            5.23783432218046        0.08066299098531        0.06909030001137
H            5.16113129252186       -1.59335629227193       -0.38241883292426
H            2.73479451709750       -2.72637527136871       -0.63601521761291
C           -0.07556234373088       -1.86113188007653       -0.24474862384009
C           -1.23247980191903       -1.13899974335470        0.04338881679538
N           -2.31961723006767       -1.82446967539230        0.33950400172622
C           -3.54024236157844       -1.40251110926123        0.58399445194777
C           -4.13830473238540       -0.20215238331510        0.24754514737507
C           -3.43723827421719        0.92878327169045       -0.22324553154675
N           -4.13606990956244        1.94458844402373       -0.79591065969378
H           -3.64735913030713        2.80823023579272       -0.95686038613666
H           -5.13812478162780        1.95991498599802       -0.74580913667025
N           -2.14707191200020        1.17320316496412       -0.07028417353890
C           -1.13793558815688        0.35974210973295        0.15124038802760
C            0.11680879251657        0.93741742045068        0.35863872070262
H            0.17756104537228        1.99859758079259        0.54852859289903
H           -5.21387289358873       -0.12226417201060        0.33762517817962
H           -4.17449631001452       -2.17312137562450        1.01415322171480
H           -0.16306013866633       -2.92242742811542       -0.42180319459049
