25
 energy: -42.704951320997 gnorm: 0.000651055722 xtb: 6.6.1 (8d0f1dd)
N           -1.85045569447991       -2.12674924640560       -0.97821854515973
C           -1.85343690394263       -0.99052984655118       -0.26577056669766
N           -3.02617655530450       -0.60341339612531        0.18366419448970
C           -3.34774093963125        0.59199257228498        0.62572308197191
N           -2.85759934869620        1.74694860665580        0.26822866389421
C           -1.63827646625569        1.93421090434948       -0.21611492357695
C           -0.51902503417886        1.10274992718978       -0.15667474716803
C            0.74222252862970        1.71932206902625       -0.30573489561716
C            1.88469292865095        0.99069630099095       -0.12491040169147
C            1.82436725440381       -0.43377030482756        0.16756653818007
C            3.14142331037076       -0.82778528949828        0.30882995434260
N            3.99466497603925        0.21596431512871        0.12961204697732
C            3.27720369437129        1.28820158776219       -0.12190035784568
H            3.73927103521423        2.24231808853791       -0.29534679089426
H            3.54331039509603       -1.80242650960745        0.52252091199932
C            0.57898857031045       -1.09568667832251        0.19188046052550
N            0.56179115356978       -2.47670970148823        0.33837261062395
H           -0.24395916289807       -2.86212059080766        0.80872365094252
H            1.43370342074444       -2.84732499193136        0.68522554972708
C           -0.58201113958972       -0.35178158861655        0.01956378146434
H            0.78366427985015        2.78418184586522       -0.48590354069114
H           -1.47796636086266        2.94820270720849       -0.57128579463275
H           -4.23634132449232        0.62880394063733        1.24919600242759
H           -0.98666735059730       -2.50925615057962       -1.32372992795360
H           -2.73173248732186       -2.54561875087574       -1.22344054093753
