30
 energy: -49.301408526544 gnorm: 0.000651586770 xtb: 6.6.1 (8d0f1dd)
N            5.25276319070663        0.20284101771728        0.04988200309305
C            3.90398812031204        0.12441203109790       -0.01003332885485
N            3.33351112429931        1.34511256072913        0.05635959721214
C            2.04723016392609        1.59251513160963        0.02889764161586
C            0.87475835988729        0.82660350143099        0.01140712681883
C           -0.31655310389583        1.55782064326240        0.00033886349870
C           -1.53706108898798        0.92464382679259       -0.03208818807318
C           -1.60074919319910       -0.53296357108450       -0.02336024178941
C           -2.97826035372827       -0.82704093678626       -0.02859114386061
N           -3.57409572007539       -2.08685605036804       -0.01235113782876
H           -3.24485954939712       -2.69316746796787       -0.75407812628963
H           -4.58148841590743       -1.98910598319152       -0.05119210429138
N           -3.72362505302588        0.28858780759204       -0.01222295286678
C           -2.88414455733054        1.33921436311020       -0.00881526623457
N           -3.36328506135689        2.62663953895850       -0.06466521986981
H           -4.33474279779213        2.70632104933934        0.19386849218824
H           -2.76304340096473        3.33101528844130        0.33452513141447
C           -0.45095681447601       -1.30015692938775        0.05980262073128
N           -0.58516554953602       -2.66329816172221        0.16906095353310
H           -1.50415518527769       -2.95827486251065        0.46343301314702
H            0.17123834341361       -3.18122668886061        0.58368095364889
C            0.82858022004304       -0.65816008591121       -0.00004734125868
C            1.95494870555868       -1.44818047018393       -0.11485363875921
C            3.31490839480536       -1.12865041315390       -0.14485383299955
H            3.99963146012520       -1.96175028441366       -0.24371234106549
H            1.77812820771183       -2.51261961980810       -0.21506740700076
H           -0.26506924430161        2.63851081543695        0.01882321649343
H            1.86880358163943        2.66820015739343        0.03052178107193
H            5.66445729920616        1.11638704284870        0.11976092057662
H            5.83444027681798       -0.61053517511037       -0.03069431160087
