25
 energy: -48.294158071215 gnorm: 0.000767807097 xtb: 6.6.1 (8d0f1dd)
N           -1.24431500256717       -3.24997729343211       -0.47326878620801
C           -1.42696159402456       -2.13262522589959       -0.28190759656103
C           -1.74064563185708       -0.77334174887778       -0.03973015156562
C           -3.11748984285087       -0.48025146923141        0.07565908026685
N           -3.97569894252522       -1.52472834565056        0.09173965481276
H           -4.96667189831810       -1.36869945100026        0.13164030468687
H           -3.63391588785582       -2.46807424889401        0.01605122096869
C           -3.68351258517887        0.80605277969211        0.15380843159129
C           -3.06740407380289        2.03276583259435        0.01712100565045
C           -1.72521876752076        2.34519051554080       -0.08400393447375
C           -0.59393201234910        1.52506431230060        0.03917887621236
N            0.57051032698926        2.17578429838795        0.02822782447773
C            1.69594326727102        1.53949586722987       -0.09823459878542
C            1.68939314259325        0.04490105033526       -0.08167152588081
C            3.04072097673867       -0.30624412139559        0.05966297860228
C            3.59057096428001       -1.58759292480326        0.14336779853320
N            4.06316577290107       -2.63124432518493        0.22199618506477
C            3.73798615129757        0.91912125041310        0.01211298698094
N            2.94388172893875        1.98640635684220       -0.02947952203769
H            4.80619696926822        1.04193955338062        0.02933190065866
N            0.55785934092075       -0.58659962429695        0.05747951904763
C           -0.60057199311760        0.06384759271024        0.05595102737488
H           -1.47703385281469        3.38071930094456       -0.27578860807476
H           -3.73772560247841        2.88256433780382       -0.01546179495923
H           -4.76145328513747        0.82010659319071        0.25654416101582
