30
 energy: -60.496269665477 gnorm: 0.000334983660 xtb: 6.6.1 (8d0f1dd)
N           -5.67328899497548       -0.19029330824818        0.73701537800648
C           -4.56604987803880       -0.02948206436433        0.47477833711888
C           -3.20540165109424        0.18888786969364        0.16465336278748
C           -2.80025770303736        1.53074210230737        0.13201151098836
C           -1.50604678101999        1.99438558701528       -0.20055275529576
C           -0.29115613182533        1.35559982814961       -0.27376914487694
N            0.72291837811746        2.24204255148898       -0.48070613341114
C            1.94218603129183        1.83241817454876       -0.37738156351178
N            3.05787421071018        2.60426213437825       -0.50456517708389
C            4.06520013390511        1.82589074662500       -0.21337966490816
C            3.68951558098284        0.47501668237502        0.13293035239652
C            4.57360638495936       -0.54054988493632        0.49660589648074
N            5.32954840020167       -1.35273293269894        0.79423566622628
C            2.31238796529643        0.44855350792409        0.00109106106824
C            1.27852298075247       -0.49024374490755        0.11125507887567
C            1.59783549424784       -1.79787013890777        0.54332897706296
N            1.90237489572041       -2.80375527013518        1.00260840320069
C           -0.04494063454687       -0.07502107692553       -0.11287906332307
C           -1.05566810640790       -1.06279106291962       -0.29107618924772
C           -0.60069937023673       -2.33339187519214       -0.72087625415373
N           -0.34098527439062       -3.34891882470130       -1.19173259593487
C           -2.45579345628496       -0.97978306083103       -0.16461912365628
N           -3.16882748515255       -2.11523993521946       -0.33060835068753
H           -2.70073624339965       -2.98772511218469       -0.51156802196032
H           -4.16880902656974       -2.11331185293685       -0.22345096783617
H            5.07532227712709        2.19556757824567       -0.24272638364125
H           -1.42107365871170        3.06550186158460       -0.34134782661671
N           -3.71525954322709        2.48761448870542        0.39403487656465
H           -3.45021263878656        3.45632249022940        0.37916124116673
H           -4.66157208600888        2.24689218354009        0.63693930570227
