29
 energy: -49.610298632229 gnorm: 0.000932043568 xtb: 6.6.1 (8d0f1dd)
N            4.04398237796707        0.03708145084622        1.32672732054668
C            2.99993750047330       -0.02792466814903        0.47530193539873
N            2.55219980268538        1.12202486136519        0.00240835665776
C            1.33327695814998        1.35779747811231       -0.45049489221533
N            1.21806114401038        2.52055089739579       -1.12644998780137
H            0.34721877260206        2.76601037355576       -1.56382287120049
H            2.06032657750081        3.02256143274816       -1.34776472421166
C            0.15400601070182        0.58569659366339       -0.18059566718977
C           -1.09271223953008        1.21780189059169       -0.02010799491393
N           -1.22642033360260        2.60415939850863       -0.00210489277756
H           -2.13214728169965        2.88937318374527        0.34245557492157
H           -0.46918479523421        3.11129273847515        0.43371113159507
C           -2.24236437029131        0.44109965433488        0.13432339699843
C           -2.16120598877794       -1.00709123728598        0.12509757106336
C           -3.47362613733224       -1.44044224831664        0.33425709173885
N           -4.31346217318633       -0.40708790059403        0.45365118844084
C           -3.59670255176102        0.71809651305893        0.34708528217246
H           -4.08856965940202        1.67388187219544        0.41220750724131
H           -3.83628876553956       -2.45108662554600        0.39118044247807
C           -0.93365365941851       -1.62624672157699       -0.05191749600946
C            0.22275239236037       -0.87273994782570       -0.18502401792736
C            1.46537090249818       -1.57117485652639       -0.39905161782048
N            2.65499175835821       -1.24044043277256        0.06350147273493
N            1.43255734530780       -2.74967548949009       -1.05033055028419
H            0.56030290526621       -3.14681531195909       -1.34900400876614
H            2.27501675759425       -3.29692021011541       -1.08446328716417
H           -0.88126135145631       -2.70646445499487       -0.01129039322974
H            4.46941197622833        0.92959506818614        1.50036833791374
H            4.54109738422763       -0.80758779253021        1.54334124660995
