27
 energy: -42.135971599601 gnorm: 0.000394149762 xtb: 6.6.1 (8d0f1dd)
N           -1.69741705405560       -2.58068320280245       -0.54495494273849
C           -1.95097390402611       -1.29999334998047       -0.16672398506538
C           -3.27481126469141       -1.00629250784616        0.10768771233944
C           -3.87479280668872        0.21962140998402        0.41003954566943
C           -3.32582368125944        1.47174245880378        0.32127057033878
C           -2.00814023474712        1.80382589647208       -0.01738322372316
C           -0.87148134360010        1.02021373207298       -0.13734646033930
C            0.34129070405603        1.74959855381911       -0.30180175749113
C            1.55214333993989        1.13947564739457       -0.20013061195786
C            1.62894336185512       -0.29093286101175        0.06872561608895
C            2.98572849338835       -0.56303904650535        0.17687447735060
N            3.61655510652071       -1.77756166478049        0.36684043252637
H            4.59035285693662       -1.67125918917843        0.61021323045099
H            3.12125610965756       -2.43121184128303        0.95452898017334
N            3.73405555484883        0.56739522960081       -0.01716639537733
C            2.91288527660800        1.56944696245692       -0.23749171889832
H            3.28161892249521        2.56255261194920       -0.41483494685790
C            0.44822162103655       -1.03533812863983        0.11016389086254
C           -0.78756840787989       -0.43744595443475       -0.03478499290304
H            0.52784896893094       -2.10033038551753        0.28146317689095
H            0.28035991177573        2.82037338158428       -0.44526259361557
H           -1.83534822843232        2.86830376819388       -0.13155743777813
H           -3.98610873314236        2.30866658532130        0.50778748556650
H           -4.92594394532486        0.16727909203073        0.66590489717119
H           -3.95148473048074       -1.85241003530191        0.05794083774804
H           -2.47331502201664       -3.19191500940748       -0.73388002470500
H           -0.81014641020425       -2.81474951809410       -0.95328614372619
