28
 energy: -51.472130820650 gnorm: 0.000742054395 xtb: 6.6.1 (8d0f1dd)
N           -5.38213660240852       -0.13005254906368       -0.03042746399465
C           -4.23660395662217       -0.03467086178051       -0.01755766557916
C           -2.83057359487690        0.08581625170954       -0.00233874398080
C           -2.32416733967089        1.40242895881741       -0.00157568023202
N           -3.22718893835691        2.41680229603929       -0.00959428179647
H           -2.91771960428564        3.37108678863705       -0.02059802437596
H           -4.21420138251223        2.22841545292888       -0.02963011379626
C           -0.97412129496748        1.78228020064604        0.01309823027881
C            0.22627799163493        1.08620310226757        0.01256101482744
C            1.39032607317867        1.88528207928066        0.01933323972853
C            2.63238420914775        1.31238581663728        0.00895716495177
N            3.87032260637451        1.84068368186677        0.00802116426406
C            4.66427734475803        0.77473895890358       -0.00766829772289
N            4.08205424483675       -0.43838405581097       -0.01698321323528
C            2.78143400392109       -0.15711707288631       -0.00706110981544
C            1.64934665777407       -0.96306752071114       -0.00764758243736
C            1.81370043798979       -2.36234389836711       -0.02052675618485
N            1.93341797370055       -3.50477466241132       -0.03147671583010
C            0.35298422371188       -0.38044427660567        0.00370024311167
C           -0.71177183170007       -1.27155863040803        0.01104939044566
C           -2.10512649800717       -1.12674249831746        0.01183547745445
N           -2.81952921629580       -2.27992791695240        0.02032887136119
H           -3.82434277570175       -2.26651100698123        0.02597520654169
H           -2.34656868997198       -3.16531749846320        0.03390203869710
H           -0.40290260192545       -2.31258404688575        0.01368242726408
H            5.73506011488383        0.87228147319251       -0.01202173549027
H            1.29719076152726        2.96089640522481        0.02920852135178
H           -0.84619565393646        2.86035603809328        0.02095689259436
