27
 energy: -52.537781111421 gnorm: 0.000758979437 xtb: 6.6.1 (8d0f1dd)
N           -4.45275193413380       -1.98497058939973        0.00142272366312
C           -3.66255376370892       -1.14944730861756        0.00197945660032
C           -2.78282589353991       -0.06851862286859        0.00093584327091
C           -1.39339881946900       -0.05753619551020        0.00025612477253
C           -0.96258343340260        1.36773954391564       -0.00000312668142
N            0.32299001334407        1.68425726177358       -0.00028224454169
C            1.20979253889280        0.69032676886294       -0.00044025749185
C            2.55234543708111        1.14376989958954       -0.00073927565613
C            2.68005778490680        2.56103323769548       -0.00035275321622
N            2.85553108187267        3.69323502787682       -0.00117425569588
C            3.75662076719852        0.44907727447268       -0.00099490087173
C            3.97013371670262       -0.92100932014183       -0.00121653615705
C            3.02725883247051       -1.93582054540210       -0.00129052019747
C            1.63840044196978       -1.83942985113597       -0.00086613824531
C            0.95857740448043       -3.09010395478545       -0.00333182341533
N            0.48501471967617       -4.13297943001804        0.00117446346372
C            0.78136566507649       -0.71426221202652       -0.00035252921533
N           -0.51345037254743       -1.03964285397025       -0.00000291686158
H            3.41299776522777       -2.94851659486557       -0.00174416145236
H            5.00496952212495       -1.23744494739886       -0.00151745989256
H            4.64322255109784        1.07226556184897       -0.00112401247600
C           -2.09000851973422        2.16238742621187        0.00023598381489
C           -3.21178899036675        1.30561074142836        0.00078927501624
N           -4.49259404969238        1.67856231191446        0.00124604538178
H           -5.21797478188383        0.97983149806301        0.00166780501637
H           -4.74382104086373        2.65211222408791        0.00118832854876
H           -2.11755262167999        3.23409127159938        0.00009770981925
