28
 energy: -56.263483957370 gnorm: 0.000955232450 xtb: 6.6.1 (8d0f1dd)
N           -1.97712677265518       -3.53925538466708       -0.33351175749858
C           -1.93232652114957       -2.40084613024706       -0.18871288681661
C           -1.97800253479412       -1.00452450415659        0.01379886538247
C           -3.28067090999425       -0.45390575493265        0.18907941823077
N           -3.66930249841000        0.80668773762517        0.07491067740240
C           -2.94016173428921        1.88941592344092       -0.11786211820762
N           -3.66237686752351        2.99408695249966       -0.39067603078546
H           -3.22636347358685        3.89202899551245       -0.49597076203698
H           -4.66409144780697        2.91815917428532       -0.41599502783295
C           -1.53526313303874        2.05249392292512       -0.02524076333169
C           -0.54777230714183        1.10466133772454        0.14207451145616
N            0.70086022853094        1.61109633449393        0.24607527153826
C            1.71891968173440        0.83669234649593        0.05820154894528
C            1.53666578351073       -0.62482012617228       -0.14834240523402
N            0.32861669404702       -1.14349961179948       -0.09073804550494
C           -0.72890719514849       -0.35215505093947        0.04233557878348
C            2.80523032142781       -1.19860286966158       -0.15119463714773
C            3.11545414668535       -2.55544950611991       -0.27921055170335
N            3.39599323705821       -3.66386061563897       -0.38671336516396
C            3.75613411843599       -0.14869814887494       -0.00236280764389
C            3.12106598591044        1.07404483360243        0.15858295478889
C            3.71958147844429        2.32570005092937        0.32673641248335
N            4.20695654718099        3.35500078579743        0.47562087196901
H            4.82136706045332       -0.29962679579417        0.00999612412254
H           -1.16496068884940        3.06507325736950       -0.13045926005157
N           -4.28997085593666       -1.30859482859024        0.43917676865626
H           -5.22306128090851       -0.93946400852614        0.49328028853086
H           -4.13335614718557       -2.30113131558276        0.48350347676819
