22
 energy: -39.536718265912 gnorm: 0.000666487326 xtb: 6.6.1 (8d0f1dd)
N           -3.64959433866645       -1.52219066084399        0.63835073080935
C           -2.77544453422268       -0.64080549625017        0.11585448594679
N           -3.26385896843172        0.54132571396794       -0.23038879178894
C           -2.54564949134131        1.63456849209771       -0.40771640740212
C           -1.21815184612369        1.87994573830102       -0.11313101550494
C           -0.19085056200947        0.94058908304096        0.12697487789374
N            1.00582237617341        1.40320410554642        0.38904560446763
C            2.06583261818941        0.62665089110461        0.21613299209813
C            3.40131406883927        0.76288734326161        0.52796513416089
C            4.02225829141912       -0.39561923106787        0.00264114710569
N            3.18691091242779       -1.26448397006995       -0.54359508670642
C            1.95615511948982       -0.72069836638921       -0.41554756387981
C            0.71688655786116       -1.26444803816685       -0.57528583458431
C           -0.41893248256325       -0.49728112707467       -0.19926199010669
N           -1.56351862599925       -1.11707247472948       -0.16123397354731
H            0.56982320646205       -2.29878671648816       -0.84523076261581
H            5.07813639223371       -0.60692912147014        0.01488361291369
H            3.88577880514276        1.58479184447364        1.01485951267064
H           -0.87179556566080        2.90224738113789       -0.19343351316429
H           -3.13593408089823        2.46558933408488       -0.77988106727942
H           -3.37776641014008       -2.48524976494488        0.72544562190131
H           -4.62106883738136       -1.26834878062155        0.67045170181228
