26
 energy: -42.424304568750 gnorm: 0.000547633464 xtb: 6.6.1 (8d0f1dd)
N            4.95210183495642        0.19042550664755        0.00403642620728
C            3.60321655578763        0.16024757808727       -0.00049154535107
N            3.13344182508018       -1.10068713661067        0.00313030745169
C            1.87713126264044       -1.46627200779227        0.00240490803181
C            0.64519926372901       -0.79516407981586        0.00394483109164
C           -0.49420645074512       -1.60741768194959        0.00607030558356
C           -1.76111204263353       -1.06371801581181        0.00638080772733
C           -1.91719081468188        0.39854292906469        0.00367768789443
C           -3.32318696862780        0.59371552342898        0.00720393030425
N           -3.99475948379828        1.78809741705157       -0.06249272727914
H           -4.97683021751299        1.71706418968644        0.15351385592861
H           -3.52707991811369        2.58839221887958        0.33133739458470
N           -3.97507463421214       -0.57334982030211        0.01147721461665
C           -3.06284322008653       -1.56166656726547        0.00836092832906
H           -3.38204796341434       -2.58722030010102        0.01263128004137
C           -0.81698892749729        1.21001680258521        0.00178615957990
C            0.48486903365320        0.67137840291018        0.00077949132331
C            1.54044866390587        1.57612162154798       -0.00679991537741
C            2.91288991629289        1.37755735904405       -0.00881672890810
H            3.53195810819207        2.26569825748730       -0.01508535606841
H            1.24120418522779        2.61917290092603       -0.01203196559946
H           -0.92770674431460        2.28730815868966       -0.00366485034477
H           -0.37117716329345       -2.68231464585057        0.00716766010346
H            1.79158253952869       -2.55300708625472        0.00218605162956
H            5.46402203993340        1.05367019072548       -0.00173565805995
H            5.44044177290407       -0.68807222950797        0.00771744805966
