33
 energy: -63.664770593305 gnorm: 0.000921568773 xtb: 6.6.1 (8d0f1dd)
N           -5.49808443603755       -0.04530216421064        0.60490214936135
C           -4.36826384773035        0.00175429901329        0.39513257313425
C           -2.98109737594134        0.06982928486106        0.14797117639349
C           -2.42426756141432        1.35980628945386        0.19906987302967
C           -1.07455106158425        1.68656185758285       -0.09700121913244
C           -0.80500208710547        3.07232568815648       -0.24195020935743
N           -0.68719161967947        4.20925260792448       -0.35444689149880
C            0.07867110118554        0.89542590360102       -0.17545227721651
N            1.17390157584602        1.63379889829453       -0.37447622438368
C            2.36315670447860        1.08656241201019       -0.24609499701971
C            2.54184516350139       -0.33531990189623        0.17045498030798
C            3.87760625598231       -0.55828594021527        0.33224757626369
C            4.55450628489495        0.66690210531410        0.00077876249512
N            5.88279722097225        0.81657876507342        0.03211084583940
H            6.47533229934753        0.05125152402197        0.30389619696530
H            6.30233094211879        1.69647814200241       -0.21328746136043
C            3.61978895841722        1.65646773324457       -0.35134739285887
H            3.83823012897762        2.66659175452483       -0.63261742139878
H            4.35713017257793       -1.46965675206276        0.63453153766337
C            1.38378938691782       -1.13246311184165        0.25451469104541
C            1.55040336708061       -2.46592030692722        0.68234067510714
N            1.77719863544655       -3.49326204606154        1.14365589703982
C            0.13058830172157       -0.56558758590674       -0.01387991180104
C           -0.97878932311377       -1.41992940692885       -0.24370745394455
C           -0.65979585029558       -2.74111826285951       -0.63801520621045
N           -0.49815753598444       -3.79119350607452       -1.07773244022889
C           -2.36440054554111       -1.16397394394746       -0.19494715136598
N           -3.20046597888313       -2.19904090221042       -0.45030068968224
H           -2.83049225317655       -3.11914204398299       -0.61891208847045
H           -4.19531728540440       -2.08103445629273       -0.36605715469575
N           -3.24278772261721        2.38860257340273        0.51760056770303
H           -2.89343015587225        3.33177912442747        0.49576353236702
H           -4.22551401438477        2.23212059081003        0.66370002480985
