34
 energy: -56.987645304904 gnorm: 0.000744893850 xtb: 6.6.1 (8d0f1dd)
N            4.97169365279253        1.46280899665044       -0.82355641840676
C            4.01661540447913        0.87251052127317       -0.54931262069401
C            2.87882158712921        0.13460520590397       -0.21597672713263
C            3.12856182906822       -1.16706305645235        0.34766608591022
N            2.34095999705153       -2.20717219578508        0.31483144059050
C            1.06291482087369       -2.22505493067934       -0.05746717346408
C            0.09920037191371       -1.23562283280111       -0.11742888783573
C           -1.23617629559296       -1.69770353661469       -0.22769717977052
C           -2.28898466037177       -0.84464199999838       -0.11945120094235
C           -2.06236931466986        0.57216884079805        0.12532133207443
C           -3.31944053863928        1.17367987987736        0.23036272484109
N           -3.60033055788305        2.52048235565715        0.45699742314298
H           -3.02535786271757        3.15713428533041       -0.07791452921977
H           -4.58285450800103        2.72997567064145        0.34194829481123
C           -4.30908276901352        0.17137771333946        0.08403412920843
C           -3.70611899740921       -1.05225832799600       -0.12321983069715
N           -4.32922317222997       -2.25419862485224       -0.38952419207457
H           -5.28659624299939       -2.31778944136933       -0.07932493415036
H           -3.78055055346555       -3.07517845334601       -0.18652799875977
H           -5.36932327204271        0.35202376014010        0.12447132046984
C           -0.75331307115110        1.06442592410586        0.20163215499701
N           -0.59214297280467        2.41215410258745        0.52421909285899
H            0.29624502994453        2.63936979929484        0.94859966356408
H           -1.37243019897581        2.76605289456345        1.05940642650594
C            0.34385508942653        0.21192196492644       -0.03323911854045
C            1.62358415661635        0.75661113931908       -0.35679751001981
N            1.66570517997767        2.03839458340753       -0.81550190031977
H            0.81583995714337        2.47361625461201       -1.13003114284003
H            2.54151981947866        2.38628766877138       -1.17088120100147
H           -1.39315208137360       -2.76141621337451       -0.34904736372465
H            0.71898102460468       -3.24180561084490       -0.22784157379945
N            4.34470667475191       -1.37296211315060        0.90600502435973
H            4.58100423830014       -2.31474903092372        1.16595286132860
H            5.07896751118916       -0.69751163341064        0.77801070513096
