31
 energy: -60.230012951488 gnorm: 0.000885262261 xtb: 6.6.1 (8d0f1dd)
N           -3.30496136455264       -3.49975570785524       -0.17742692671437
C           -2.91635265164989       -2.41919174903976       -0.12361132452229
C           -2.53631226894740       -1.06304051274543       -0.03177237305651
C           -3.61437126683536       -0.19106909747209        0.36972428826238
N           -3.73668969417153        1.08072006999658        0.07372104331264
C           -2.81369198966827        1.90030060386917       -0.37816059485788
C           -1.42836883020573        1.78068733571759       -0.34514557123265
C           -0.75906950211143        2.95349416051640       -0.77438744869480
N           -0.31878692677299        3.90919833818069       -1.23122061698887
C           -0.64306628372689        0.62190450832879       -0.06931492725740
C            0.72153393799551        0.76628230479687        0.18048892784124
C            1.26782038452176        1.99874105611285        0.60388873638981
N            1.74665559663557        2.93792499278647        1.05622032174501
C            1.59204645317548       -0.33663768835222        0.06524882310917
C            1.05668636744224       -1.63407394946850       -0.37078017195810
C           -0.30060206674393       -1.79484593915200       -0.50040200881630
C           -1.19188806860549       -0.73461406009658       -0.23094798647407
H           -0.70609199615861       -2.77062283279375       -0.72506351588884
C            2.13070149033500       -2.52835951951303       -0.49689248069805
C            3.29105597944163       -1.85491458506424       -0.15234644843913
N            4.54796087507208       -2.31568687322688       -0.13051007417149
H            4.75251281193531       -3.26293361873238       -0.39592421142488
H            5.30165422808435       -1.70389282496510        0.13517060701635
C            2.95589938900204       -0.47661086923144        0.21273814830728
C            3.92411548953201        0.43946475481105        0.61564454311527
N            4.79842013800705        1.11399413036076        0.93806006366729
H            2.06085695466274       -3.55409274762564       -0.80169266729806
H           -3.21528730962268        2.84337076004134       -0.73487710455250
N           -4.66010496632105       -0.73487288967562        1.02309958943592
H           -4.73295890108807       -1.72767376550966        1.16469614491945
H           -5.45447267434135       -0.14580337668179        1.20608525292903
