25
 energy: -47.516384327302 gnorm: 0.000417455452 xtb: 6.6.1 (8d0f1dd)
N            3.86748199556369        2.61754964725844        0.95620495121708
C            3.25388331495322        1.69516169481777        0.64343776261773
C            2.59006794111402        0.54104818953481        0.24785505184271
C            1.23245735220985        0.24790186942901        0.17898771539300
C            1.16956870355625       -1.15724157329525       -0.30469905622966
N            2.39613995359924       -1.64046451506258       -0.53992877163839
C            3.24676176486468       -0.65332892314043       -0.22661692942878
N            4.56643669968654       -0.80223253416108       -0.34203171819460
H            5.18671137725457       -0.05596300573170       -0.07901501462031
H            4.93109992514179       -1.67717272519314       -0.67637778393767
C           -0.04855449205069       -1.79373910978841       -0.31411280617567
C           -1.17760208128042       -1.07463793187526        0.10940403670331
N           -2.27679547785139       -1.74923583647725        0.37169816517538
C           -3.47914045642596       -1.31975452613992        0.64228169576074
N           -4.08196104096575       -0.21655989810989        0.26816712827173
C           -3.46638324659340        0.90155843177279       -0.11032303235761
N           -4.27689987861795        1.82689016791177       -0.66505037418357
H           -5.25628990512192        1.61660390149792       -0.74342292299157
H           -3.94468981069810        2.75028311924931       -0.87469256138054
C           -2.11471743603239        1.24685418064509        0.10900736661148
C           -1.02945047462335        0.39646907711108        0.29530757603500
N            0.15888741046674        0.97278207746160        0.42436979264649
H           -1.85038972111247        2.29146161859671       -0.00426501898804
H           -4.12641610024775       -2.04945077947899        1.12066697800886
H           -0.14318245648016       -2.84598215203108       -0.53100343395658
