26
 energy: -52.033732798198 gnorm: 0.000625709096 xtb: 6.6.1 (8d0f1dd)
N           -2.03078424333727       -3.70020177505161       -0.49143561500531
C           -1.86847951337044       -2.57361956492110       -0.33130311024503
C           -1.76884881222904       -1.18109168940508       -0.11673784297968
C           -3.02760874859454       -0.55957381946156        0.17036341616398
N           -3.35925512820741        0.70671419805722       -0.01573827841285
C           -2.57470118263257        1.72963999350448       -0.23249008521296
C           -1.19139206780398        1.84754274248414       -0.09900585055151
C           -0.69216876420560        3.17362835964362       -0.17126203776483
N           -0.36263655461483        4.26827972083473       -0.25086609337778
C           -0.21021684614717        0.83473583929392        0.05831484187005
N            1.00373080407541        1.30121209758460        0.27307051352683
C            2.03227761525649        0.48002276136314        0.18267989852229
C            1.88005776649887       -0.93550295337856       -0.25995255232822
N            3.09572272740076       -1.48078071039754       -0.30061860351739
C            3.90357488094350       -0.47781560587532        0.09605041883653
N            5.21886225855219       -0.62169023672474        0.19407538339309
H            5.64085715636043       -1.49790757976834       -0.05834529005261
H            5.77054915409957        0.15806184185625        0.50634212789862
N            3.30394059445567        0.70613501152176        0.42784468097575
C            0.61229444245556       -1.44926392728147       -0.38096877448321
C           -0.48767368328656       -0.60447249508706       -0.15070366693214
H            0.45864160351934       -2.49972290066262       -0.58023563440620
H           -3.11678071085114        2.63910698831772       -0.47523944512069
N           -4.04693916766364       -1.33907226125284        0.58023659112585
H           -3.95458160549538       -2.33839249178746        0.64467305023235
H           -4.95206541067707       -0.91164225820562        0.67847508184456
