28
 energy: -51.482104946622 gnorm: 0.000816433045 xtb: 6.6.1 (8d0f1dd)
N            5.01170767506787        1.93339237170054        0.00650697751718
C            4.12899277328104        1.19317525060722        0.00147247123349
C            3.09237417885725        0.27154739426591        0.00254471350620
C            1.71282104871843        0.47455017987091        0.00222886495231
C            1.13321215939977       -0.88911875147706        0.00208894433763
N            2.08428130323970       -1.82280795663112        0.00280705657334
C            3.25031593534749       -1.16085720585028        0.00315482211308
N            4.41727646823859       -1.80650105279198        0.00368194198407
H            5.28415518573022       -1.29771448999090        0.00390267795243
H            4.41206510198625       -2.81156113778232        0.00378724761878
N           -0.15840444148935       -1.10622354059758        0.00127936398997
C           -1.00107163184341       -0.06497874256105        0.00051725593916
C           -2.33600213846052       -0.50059628415199       -0.00092299401869
C           -2.44400612369122       -1.91808052559070       -0.00001081160467
N           -2.65847114504350       -3.04611980588154        0.00073380933114
C           -3.57194839334618        0.19769506048260       -0.00227250306246
C           -3.71772654568712        1.58708863937964       -0.00067380443064
C           -2.74125652528497        2.56924957904334        0.00119809099318
C           -1.36696492948877        2.45405237373993        0.00175143666244
C           -0.53307234487819        1.32504822760826        0.00126993859182
C            0.84919250863591        1.54822556575446        0.00196507170532
H            1.22764276597268        2.56210909698907        0.00242797090125
H           -0.82797610314974        3.39518626221822        0.00286655719567
H           -3.11822291821711        3.58456402337133        0.00224087368153
H           -4.74265075572462        1.93861995200034       -0.00121415296764
N           -4.70587135330397       -0.54649695322677       -0.00755333023363
H           -5.60490068986343       -0.10101803969606        0.00063995252578
H           -4.65534823060308       -1.55051522990246       -0.00141011248809
