30
 energy: -50.126193364010 gnorm: 0.000616253351 xtb: 6.6.1 (8d0f1dd)
N           -4.40447839286223       -2.54550756771369       -0.11433876189410
C           -3.74484741503635       -1.60017262918130       -0.07243832649094
C           -2.99351350716188       -0.43817178606770       -0.02791555007289
C           -1.60611693508850       -0.26282276518408       -0.01435588747307
C           -1.41149798408921        1.18851634730875        0.02590562097983
N           -2.59147414971475        1.84363869310000        0.03640849985288
C           -3.53099109457628        0.89756485942364        0.00563055577713
N           -4.84027121904139        1.19401316916395        0.02840658550274
H           -5.52226242884289        0.46497637942937       -0.08229665151647
H           -5.11811416511735        2.15770124232936       -0.01763049621067
C           -0.14161457113907        1.70134787673957        0.04129302968733
C            0.99271044678411        0.86042156686920        0.02060466009258
C            2.21983468572797        1.50487171521399        0.02210738237310
C            3.54656246623013        1.04298595648467        0.00329987770563
N            4.51962832602535        2.01472383998796        0.05800044258537
H            5.46167406832109        1.75563164910573       -0.17913915674889
H            4.25644126602607        2.95903264019796       -0.16496668700856
C            3.97486818953860       -0.27527811481080        0.00112866372446
C            3.21012314611294       -1.44642273167329        0.00338404944625
N            3.91178803092003       -2.63052187528858       -0.05709135792688
H            4.88367308341086       -2.61762018604610        0.20005249228155
H            3.41649370883211       -3.47902968949547        0.15703087561319
C            1.82231927691861       -1.54624376172931       -0.00868499746385
C            0.79439653664695       -0.59627068602888       -0.00863489649503
C           -0.50977017408611       -1.10071168312930       -0.02823759555278
H           -0.66168565106319       -2.17110005356152       -0.05432359102035
H            1.46183723104660       -2.57034138664230       -0.02226829880911
H            5.04952927218155       -0.42115737241561       -0.00341750706921
H            2.14556663468949        2.58789502338762        0.04083121238780
H           -0.00505582399325        2.77198595002617        0.06811477494302
