25
 energy: -47.519556771403 gnorm: 0.000744696138 xtb: 6.6.1 (8d0f1dd)
N            4.40905534556902        2.07486453875423        0.96737296978224
C            3.63341674837458        1.28630732054488        0.64646685957296
C            2.73548603601528        0.30632045983543        0.24818781687382
C            1.34812141133595        0.34619447327990        0.15126958592065
C            0.96445114718912       -1.01377468080828       -0.33062478699073
N            2.04129166038443       -1.77610621092567       -0.52324523209634
C            3.09651109778901       -1.02482935456167       -0.18125737948398
N            4.33997119863014       -1.49465457911028       -0.25179723314563
H            5.12216640842672       -0.91694820215453        0.00457732387046
H            4.48340739088653       -2.43776563424066       -0.56954349082717
N           -0.27700934190669       -1.39382258331541       -0.48834815502601
C           -1.24681743141572       -0.52334166132274       -0.20302795126991
N           -2.42992359206245       -1.05959078383486       -0.06167730387610
C           -3.61876121751661       -0.49964071987261        0.08838934237942
N           -4.55880593192654       -1.26796633731338        0.66710859369707
H           -5.51619143950360       -0.96525455866023        0.63826434920159
H           -4.33185797348803       -2.22304119916629        0.88040066712513
N           -4.04122800767286        0.67103128931406       -0.39512425771716
C           -3.26715109973526        1.71474610681554       -0.57482731560112
C           -1.93313773764184        1.90274331519593       -0.22551933805724
C           -0.96027945006444        0.92627523500881        0.01663076006667
C            0.35961126951682        1.30172280066725        0.26933824746815
H            0.59871487178316        2.33412609543089        0.48928758425757
H           -1.57183287380990        2.92504767718881       -0.25386655844705
H           -3.79344535445358        2.56655400624974       -0.99500300127449
