25
 energy: -47.506861281990 gnorm: 0.000742046683 xtb: 6.6.1 (8d0f1dd)
N           -1.21877004168925       -3.58728944835301        0.47466443443046
C           -1.16827736442858       -2.44727483639098        0.33793447648881
C           -1.19949370471024       -1.04322898191335        0.19060073232039
C           -2.48311931078428       -0.51780082419029       -0.26347775936928
N           -2.90346287239679        0.70963140716747       -0.18498215158742
C           -2.15150224544153        1.77725776371734        0.15632217652452
N           -2.85543482734068        2.83254008635752        0.61366340491209
H           -3.85746213189100        2.80739109879318        0.55003469821867
H           -2.37976326296847        3.71402000883790        0.69387357333959
N           -0.87603156037975        1.95568131689725       -0.03021478900494
C            0.12262808232133        1.08094794057461       -0.08895721473631
N            1.27775824504358        1.54800772461149       -0.47600552542480
C            2.37978079552122        0.80224698387489       -0.37047836095024
C            2.35908200931843       -0.55768365965177        0.21554613884032
N            3.63014519489657       -1.04131453250397        0.31801214592911
C            4.40804367215613       -0.07647219253473       -0.10927654690018
C            3.71095340143189        1.10528011927642       -0.50954302413686
H            4.14874910715444        2.01384652853128       -0.86998111087737
H            5.47522459468786       -0.21685776218851       -0.13862843546931
C            1.17676000589837       -1.06485262109237        0.64956831426340
C           -0.01536516718140       -0.34194114201707        0.34990573973594
H            1.12138347672750       -2.01474729695092        1.16217906460654
N           -3.35009178848069       -1.40744696473338       -0.78103888220282
H           -4.25411130205167       -1.07340451602733       -1.06606418496930
H           -3.14722417201403       -2.39198281069119       -0.79901964798036
