27
 energy: -46.957487196708 gnorm: 0.000785624765 xtb: 6.6.1 (8d0f1dd)
N           -3.87267901238373       -2.80173249172961       -0.01294278356438
C           -3.30580884482677       -1.79821078713622       -0.00525091384369
C           -2.66311455625579       -0.57013986905829        0.00554424909044
C           -1.29791873319248       -0.27095856055579       -0.00108679994535
C           -1.23384099361689        1.19715217603679        0.01971479833144
N           -2.46154226798949        1.73955789108627        0.03732258891569
C           -3.31875137703019        0.71122890363545        0.02931148559540
N           -4.64317600491617        0.89793433302096        0.04434604228241
H           -5.26883840284723        0.11207162470087        0.03354439451221
H           -5.00098034276880        1.83630013825515        0.05701016118577
C           -0.00994262695107        1.82450251520976        0.01804339012312
C            1.18414954981112        1.08897272259340       -0.00223159739935
N            2.26705933404284        1.84927035535448       -0.00750691781966
C            3.53956266528411        1.52419124158294       -0.01901132438121
C            4.18704666961061        0.30273678293177       -0.01657257785184
C            3.60362537618531       -0.97446463446802       -0.01610966106786
N            4.44836643720110       -2.04786665709285       -0.06283489392244
H            5.42842110698473       -1.90699004844899        0.10674557883496
H            4.08331082036848       -2.96996212186408        0.09758454023741
C            2.23261791612506       -1.24053133250258       -0.02055158930699
C            1.11912223966808       -0.39762696610740       -0.01708121070900
C           -0.13449758143670       -1.01398927340431       -0.01870169337359
H           -0.19416875245820       -2.09429118758482       -0.03256728514693
H            1.98675089538422       -2.29865650103603       -0.02613041906063
H            5.26976896403859        0.33103388734245       -0.01802748629379
H            4.18272748877092        2.40142003360157       -0.02447620554696
H            0.06115266089844        2.89981629833719        0.03047075632484
