28
 energy: -50.668476401939 gnorm: 0.000543393803 xtb: 6.6.1 (8d0f1dd)
N            5.46102423565997        0.07178521459092       -0.12944866319316
C            4.30944942409516        0.04744858594620       -0.09615589769244
C            2.91079339541493        0.01872763785326       -0.06467067218729
C            2.25440603073469       -1.21772535045075       -0.28934997860112
N            1.02364765350654       -1.51247230444531        0.08323835782418
C           -0.04015784996379       -0.75562121718069        0.20683111492073
C           -1.22945750118020       -1.31731527667712        0.68418926877825
C           -2.41083600042035       -0.65691769724391        0.41336527588817
C           -3.75115900766978       -0.98106719078931        0.55967961476475
C           -4.49886710571537       -0.01115245580813       -0.13034521345035
N           -5.83717429693210        0.01281006920146       -0.24126704787501
H           -6.40014904060781       -0.67267186244018        0.23014082801602
H           -6.29017029885718        0.75745431097475       -0.74044939898904
C           -3.62761565573933        0.94909419303316       -0.73259886195762
C           -2.34501776150653        0.60663591469474       -0.39791916822964
N           -1.20269534269338        1.24997254787156       -0.62743649170041
C           -0.08812268616762        0.69345555927023       -0.21635112289061
N            0.94720712404832        1.48305573413254       -0.01536141556941
C            2.20995104623930        1.21900857611476        0.23907665802293
N            2.90724278096681        2.25350303758179        0.77011043469446
H            3.91164888443302        2.21963449697958        0.80406602854200
H            2.44006749259571        3.14198134668869        0.81988448129538
H           -3.94093502980954        1.79184311569617       -1.31641955586079
H           -4.15461201313877       -1.82877002909781        1.08020842816126
H           -1.21089054653075       -2.30802747664062        1.11605924688864
N            2.96412873527503       -2.25158140553008       -0.80788335973638
H            3.96325094914152       -2.17692908787910       -0.89293375431457
H            2.54207183802171       -3.16323614414596       -0.78539675544912
