30
 energy: -55.706940940621 gnorm: 0.000508346728 xtb: 6.6.1 (8d0f1dd)
N            2.45457390081514        3.74761634987025        0.38930075938569
C            2.20003098512461        2.63298663940440        0.26557426683770
C            1.99468784506484        1.24743526435430        0.09534548110246
C            3.18574603423381        0.54099212065566       -0.32956075302244
N            3.47435662456877       -0.71380904667967       -0.10504347591995
C            2.66198113868817       -1.66641080469276        0.31584405016396
C            1.27905736175644       -1.72394826300335        0.28984318366535
C            0.75851913834711       -2.97770122618136        0.69155893990391
N            0.42674475489474       -3.99028445597398        1.11803786196729
C            0.34285047320514       -0.66975083696937        0.02903265276939
C           -0.97749871173483       -0.98389868442947       -0.25455640532271
C           -1.37569270003834       -2.26486258959244       -0.69055742888900
N           -1.77514063604078       -3.23971779879007       -1.14730055621336
C           -1.99758397677502       -0.00155584123060       -0.15433767483232
C           -1.64349985251337        1.34763605526659        0.32699654206622
C           -0.32731231948858        1.67256747041861        0.51852879588771
C            0.70411311605820        0.74207180844641        0.24428799806144
H           -0.05347263149834        2.68211623127471        0.79003534046865
C           -2.83441376582750        2.08543622370004        0.42414803599429
C           -3.87271782445880        1.25960728952721        0.02214837741660
N           -5.17976090361283        1.56438141651808       -0.04455100806507
H           -5.50849308311232        2.46652297074244        0.25022983816547
H           -5.84944116160138        0.86764770427659       -0.31778318470396
C           -3.34363558739735       -0.04141447542496       -0.34502353332676
H           -3.93171682030540       -0.87004293871865       -0.69105771671196
H           -2.91853521245471        3.10455087806241        0.74693974588223
H            3.18617092796490       -2.56174998509645        0.63440324162604
N            4.14946368963427        1.25651622403702       -0.94795189845647
H            4.09505595757404        2.25814573078507       -1.01520421310075
H            5.02008767643079        0.79214182313762       -1.14216342149540
