24
 energy: -47.798393225982 gnorm: 0.000401868776 xtb: 6.6.1 (8d0f1dd)
N            4.22789126629364        1.96291669848114        1.36875438450241
C            3.48803189149336        1.20669254458769        0.91481256489054
C            2.63994188927808        0.25730258312857        0.35939129116933
C            1.25929861771838        0.27135426874391        0.19549877870572
C            0.95449555404607       -1.02863508669896       -0.49254333328449
N            2.06638084442662       -1.71736310520344       -0.73134956633247
C            3.07311422666171       -0.99534246765469       -0.21538369555350
N            4.33183998949276       -1.41766968795570       -0.27186344327741
H            4.52691450532363       -2.29996937334432       -0.71388234565813
H            5.07819807711588       -0.85860697957258        0.10572992322619
N           -0.26454273572194       -1.41010412940841       -0.76834605572720
C           -1.24993648691678       -0.58562207324444       -0.43956575072585
N           -2.41317739981300       -1.08567841906103       -0.13553552940769
C           -3.55290106583919       -0.43794012223122        0.13229326894999
N           -4.41341595362357       -1.10398142127646        0.91618038663616
H           -5.34005890811266       -0.73698863067005        1.04190618324696
H           -4.18757985002161       -2.04034528700156        1.20191193454236
N           -3.98843088878713        0.70447872128455       -0.39554698205379
C           -3.15162397697795        1.62642462744975       -0.82940012837684
N           -1.89655061576389        1.78845840227530       -0.51948639126699
C           -0.99365930898495        0.88276863300349       -0.20333228577084
C            0.26341016752859        1.22894392789225        0.28397778965923
H            0.46825962569312        2.24517945655075        0.58741140291074
H           -3.60684376881164        2.44450955932805       -1.37767471950601
