28
 energy: -51.485550620531 gnorm: 0.000923196595 xtb: 6.6.1 (8d0f1dd)
N           -4.55330961382741       -1.63031201194705       -0.03194403882921
C           -3.67865060527338       -0.88210241192632       -0.02045146689810
C           -2.68763103475150        0.09210659794482       -0.00629757525326
C           -2.95171893416874        1.51515355374824        0.00308801642520
N           -4.16903894629008        2.05952077342533        0.00029083068603
H           -4.98710516682014        1.47524870052000       -0.00792215402067
H           -4.25361837715091        3.06074668764698        0.00847771956756
N           -1.84288286638570        2.25826720670639        0.01432543245473
C           -0.82008934543749        1.39498830185147        0.01313340499705
N            0.44404038795497        1.71397932322930        0.01889023547347
C            1.37514391509433        0.73857363293537        0.01539592246464
C            2.66035684564332        1.26564586933356        0.01554174431821
C            3.93714531347057        0.68636928052837        0.00767570459464
N            4.99249622469683        1.54420880869649        0.03335490878135
H            5.92842118643684        1.19824459019852       -0.07777457553051
H            4.83788566514512        2.53145495483225       -0.06376311281319
C            4.21960972652910       -0.68389407286680        0.00543561806636
C            3.32732392471143       -1.74050040145324        0.01074561315124
C            1.94599235755332       -1.73687316160705        0.01142266009440
C            1.02315226130321       -0.68155847924107        0.00851804599038
C           -0.35082310212242       -1.02155596177036       -0.00011514125847
C           -0.77671193611970       -2.36636573879527       -0.01179319973499
N           -1.15076987403699       -3.45188153613380       -0.02260341856507
C           -1.30474858538739       -0.00605438548991        0.00107137282627
H            1.48809199882792       -2.72046086210735        0.01220620581894
H            3.78046200017317       -2.72404728127099        0.01111320126120
H            5.27095878577432       -0.94498019961386        0.00141565009545
H            2.64491245055780        2.35001078122613        0.02104140463652
