26
 energy: -52.038815527874 gnorm: 0.000868771395 xtb: 6.6.1 (8d0f1dd)
N           -3.95360631403203       -2.99672101819377       -0.85426129235831
C           -3.33833176948301       -2.06086235068902       -0.58920086225792
C           -2.64780919410433       -0.90261344738420       -0.25570437862870
C           -1.27921675724721       -0.64858077002332       -0.23574996178497
C           -1.17294429733323        0.76324826628396        0.21744453210688
N           -2.37397456476036        1.29322977388665        0.44746703991970
C           -3.26778342474766        0.33011317632038        0.17035272289629
N           -4.57453852014973        0.53645702141645        0.28982133574561
H           -4.89831312703829        1.44020991239604        0.59094682768531
H           -5.23100828452625       -0.19743659239311        0.08309408101688
C            0.06374812237543        1.39082603866602        0.28880959790358
C            0.18885603342211        2.75150399963614        0.63221244707397
N            0.30920048115353        3.85047360659757        0.93624641501739
C            1.19683684468696        0.65427756043400       -0.13639681389307
N            2.25037860713323        1.27712345218640       -0.58194634737128
C            3.40693089899538        0.77905738780976       -0.97729335483486
N            4.04534473075407       -0.26244134452145       -0.52770803244009
C            3.41184219796245       -1.21994519169611        0.17918317095339
N            4.19269944082710       -1.99228246783250        0.95037490135513
H            5.18661440603335       -1.84814305141802        0.92746474563716
H            3.80743577962326       -2.82186906890915        1.36551599154186
N            2.14798571765009       -1.58386406678394        0.05726000495401
C            1.09355816463009       -0.84248223071765       -0.22820011292616
C           -0.14967861774647       -1.42859667212970       -0.42437903355497
H           -0.22324149838206       -2.48791953330906       -0.61394815545890
H            3.95322900830562        1.40676979146780       -1.67439563859830
