24
 energy: -43.780631996758 gnorm: 0.000947205950 xtb: 6.6.1 (8d0f1dd)
N           -1.91857731750654       -3.16719503439654        0.17193224030071
C           -1.68183461110362       -2.04415977928451        0.12257221567888
C           -1.51691492549592       -0.63790130580049        0.05414967410999
C           -2.77302525716408        0.05562156571336       -0.05110548041227
N           -3.01514418332568        1.34157092589972        0.11285609499678
C           -2.14887983602792        2.32451015352372        0.20598073503418
C           -0.77086952708701        2.33849864031424        0.05956142360449
C            0.15385726701133        1.28913287622469       -0.03358986821667
C            1.49402630076909        1.65591153762401       -0.15861648470663
C            2.49035755950182        0.70104623495504       -0.12043677969204
C            2.13611607069761       -0.72121379003397        0.07402182757771
N            3.28391826302130       -1.42214265183068        0.10447888350196
C            4.22047456218963       -0.49341919317340       -0.05712420756308
N            3.81715083299939        0.78429977766835       -0.19691409415224
H            5.26515353023836       -0.74774386468571       -0.07534356578033
C            0.82390408292344       -1.10478892941400        0.17325353088619
C           -0.20530092589809       -0.14772518764788        0.08026743495507
H            0.57942715132796       -2.14983046890318        0.29058671749809
H            1.75557478363543        2.69868034912101       -0.25735197423978
H           -0.32800567866116        3.32721491282764        0.04935445769336
H           -2.63070243651189        3.28197117686105        0.37818105445391
N           -3.88494492038306       -0.67330453549768       -0.28890861731942
H           -3.86621340867544       -1.67616545338525       -0.34823557312775
H           -4.76395470867514       -0.18594526257943       -0.28545912858103
