28
 energy: -51.476114488008 gnorm: 0.000672048816 xtb: 6.6.1 (8d0f1dd)
N           -2.24985602759601       -3.51955621844032        0.53922088047148
C           -1.91929928368788       -2.43060195465499        0.37100785800314
C           -1.61387530158879       -1.07019744868836        0.16448363358745
C           -2.76226198995761       -0.26565796782989       -0.28976920040111
N           -2.91779036494527        1.01015371960388       -0.18472031822180
C           -1.98028486144051        1.88817761200199        0.27619754600773
N           -0.69092202381585        1.81460648474711        0.23326603013045
C            0.11427956910898        0.74370831438353        0.06089291794992
C            1.45128863502004        1.01250001434843       -0.20045314432588
C            1.85460269897867        2.33784707389345       -0.44776092433948
N            2.20867455211412        3.40913053109453       -0.66112507610364
C            2.42172420223354       -0.02524372191538       -0.17975835379461
C            2.00332142109200       -1.36862705242006        0.21041901629693
C            3.20213753888186       -2.19121675938214        0.23033953799693
C            4.24014794082372       -1.40173627849593       -0.12059136481775
C            3.77268028630254       -0.05202000258439       -0.37559799084716
H            4.39935624898717        0.77280384527712       -0.65933275099359
H            5.26982199701855       -1.69898607837075       -0.20666057657600
H            3.21740538257663       -3.23490211990618        0.47847105904353
C            0.70896101241267       -1.65335374522643        0.45858437437438
C           -0.30470505530919       -0.64360755075941        0.26166194100542
H            0.39178455562749       -2.64870028699372        0.73866609373227
N           -2.51132454700008        3.03815750145834        0.74903381204824
H           -3.48142059504157        3.22484679553269        0.56688678191325
H           -1.88027858429228        3.80429436614230        0.90833910498385
N           -3.76865153322040       -0.95271396660738       -0.86322984968852
H           -3.77635316639214       -1.95762143152762       -0.88799258558983
H           -4.58283514799053       -0.43907509198042       -1.15232457434549
