27
 energy: -55.763248633394 gnorm: 0.000589426767 xtb: 6.6.1 (8d0f1dd)
N           -5.41335189381449       -0.66169459523349        0.06629026858911
C           -4.26768578528555       -0.54524826202139        0.04985355559125
C           -2.87020234952012       -0.41602533906465        0.04829359617336
C           -2.12451206484601       -1.63046209940593        0.04859323126924
N           -0.85431717659642       -1.78643966652114       -0.24467262633413
C            0.18789160999495       -1.00310682848182       -0.14102796657321
N            1.35170817636450       -1.51515119719187       -0.51444799165759
C            2.46719872829923       -0.85257020380047       -0.42380230527189
N            3.72081704155580       -1.24177867753331       -0.48296986304638
C            4.42533897710103       -0.18111374838079       -0.00369371306528
N            5.75473111769015       -0.19864818797644        0.04704261166201
H            6.23918209403978        0.57829586279227        0.45879558206386
H            6.24669892168036       -1.00771857364941       -0.28625931499374
N            3.70221098796489        0.84286616017819        0.49173835798460
C            2.45460417841231        0.52273776005070        0.20465138514678
N            1.31082129199862        1.03413939306006        0.51606290948815
C            0.16860667947300        0.41819764258860        0.27715846556794
C           -0.97160087827212        1.23575059234754        0.08339128873635
C           -0.67574300382730        2.60979705607561       -0.05808723047408
N           -0.48649573096917        3.73765611464785       -0.17155166049528
C           -2.34128802576399        0.89106588808114       -0.02721787153797
N           -3.21739712967808        1.90419629811784       -0.18992927646919
H           -2.89443847302524        2.85717932824926       -0.19958982356122
H           -4.20393174854792        1.71516729737951       -0.24498001377042
N           -2.78918882045404       -2.78290370702754        0.26087795845791
H           -3.79104898867526       -2.79631339598206        0.34739318366815
H           -2.28061673879886       -3.64334142529991        0.15211416454940
