25
 energy: -51.519171879748 gnorm: 0.000767793276 xtb: 6.6.1 (8d0f1dd)
N            5.45239466223015       -0.00006097570701        0.02472534883084
C            4.30107063709775       -0.00011502482542        0.01638482461071
C            2.90048708253471       -0.00012997843908        0.00626966242444
C            2.21517555951354        1.24011844793234        0.10688169444378
N            0.96975959530872        1.46173506672919       -0.27130073801570
C           -0.07349728771065        0.67802600706002       -0.33684331706065
N           -1.18735718058621        1.16063672381829       -0.88270756806388
C           -2.30193565615473        0.56156510390852       -0.53776080971788
N           -3.55616052637471        0.84014034291315       -0.83921107859898
C           -4.26769629872398       -0.00016995771760       -0.04500442094947
N           -5.59391304881884       -0.00014490423800       -0.05443657422605
H           -6.07864702659900        0.63154797335423       -0.66725300940428
H           -6.08733756593190       -0.63181812348379        0.55142490907814
N           -3.56756474953396       -0.84048187096022        0.75927102374326
C           -2.30916912279490       -0.56197812377350        0.47566523634842
N           -1.19962425606302       -1.16101527023048        0.83652297900746
C           -0.07808363891315       -0.67836310414508        0.30667299525261
N            0.96601198035199       -1.46206465971181        0.25598131798710
C            2.21672798608837       -1.24039442374696       -0.10424685397625
N            2.90117383741498       -2.33549329902056       -0.49007080063201
H            2.43914230002923       -3.22575963558806       -0.42359759881874
H            3.89737423179201       -2.29637251076600       -0.62013755341790
N            2.89397146323995        2.33526508962338        0.50242621107795
H            2.43289830376753        3.22550624498196        0.42931804601867
H            3.88818935273608        2.29617847143254        0.64687117125844
