27
 energy: -52.527630839544 gnorm: 0.000771422769 xtb: 6.6.1 (8d0f1dd)
N            3.28868042739238        2.93477380598183        0.56972697716102
C            2.68510607496171        1.97406842163361        0.39327076429314
C            2.03753281726921        0.74181199514241        0.14585257024836
C            2.93887956122056       -0.30019329086010       -0.33302749749320
N            2.81953004621603       -1.57183898252025       -0.08367507961626
C            1.76291855227302       -2.22269506912872        0.37143636902962
C            0.43014871232425       -1.85490326068718        0.31444772208055
C           -0.46691384107782       -2.87166047515642        0.72703446745158
N           -1.10762775097532       -3.71429081109652        1.16783033042002
C           -0.11897252333785       -0.56326094157260        0.01296494289007
C           -1.45715017657515       -0.44561897864271       -0.33825301137707
C           -2.19894400346131       -1.55054963024272       -0.81377810608808
N           -2.79862354755694       -2.40150598418246       -1.29348326304942
C           -2.10216226704472        0.81085675208089       -0.25915571987870
C           -1.36089015163507        1.96622367785157        0.29961664280905
C           -0.03400739922932        1.87137621324335        0.56430213373727
C            0.66426826078760        0.65387185218463        0.27870017035993
H            0.53920559368595        2.73331624387231        0.87682662664408
C           -2.32834346367697        3.01284057107668        0.31587420129211
C           -3.46943792429720        2.46348705102477       -0.19318908678199
N           -3.32841694734957        1.13834172984846       -0.55897968916671
H           -4.42474120222469        2.93429740288459       -0.33751612775378
H           -2.17831280491020        4.01521096701102        0.66232371756596
H            1.99355279420410       -3.22066738732880        0.72741774900919
N            4.03942218508908        0.08575442296739       -1.00278187841584
H            4.70434095497960       -0.62296547770202       -1.26229017449658
H            4.28453038514611        1.05608971671408       -1.10025282637861
