27
 energy: -51.748104513800 gnorm: 0.000912783777 xtb: 6.6.1 (8d0f1dd)
N           -5.56446927673135       -0.59233113041573       -0.31513012406295
C           -4.43359072050637       -0.41925974612528       -0.19041077651171
C           -3.05498625325341       -0.21153259478114       -0.03789405169764
C           -2.23226921296446       -1.34246253364330        0.30522021664319
N           -0.94435212698826       -1.44872699549578        0.12852612779009
C            0.00950191564310       -0.52593904104616       -0.00427745471167
C            1.28971063541233       -0.94012975359767       -0.31674950745396
C            2.35603676126618       -0.06468919193947       -0.12708573330507
C            3.73506735811258       -0.15329787922715       -0.27336848707966
C            4.48918432130732       -1.20400591231191       -0.78497133225451
N            5.11617020641863       -2.07040195685586       -1.20946063388593
C            4.24955597493842        1.09908778642865        0.22889629957684
N            3.32803022358902        1.91510864804488        0.65601461073393
C            2.13189680199785        1.26416355528283        0.47253607657467
C            0.88054245255167        1.71580403511575        0.73822758239290
C           -0.22666806071908        0.90833645685680        0.33418636744866
N           -1.35185006578310        1.52574544778895        0.16319268565073
C           -2.54565268623828        1.07815659312926       -0.24920309983632
N           -3.32571188229746        2.03412301245045       -0.79168122103778
H           -4.28526390533955        1.84645753377648       -1.02465232331880
H           -2.97715530496401        2.97627084875901       -0.81931227677499
H            0.69548139100823        2.70466517819629        1.12466985355556
H            5.29060803890872        1.37032719644548        0.26341812392366
H            1.45626395067411       -1.95831061456480       -0.63164998693696
N           -2.85380713440035       -2.45393770932613        0.75768940748185
H           -2.30072961839730       -3.28611402780506        0.86620875199627
H           -3.85658224194408       -2.52306180383747        0.74854612480165
