30
 energy: -50.118047047938 gnorm: 0.000646692057 xtb: 6.6.1 (8d0f1dd)
N            4.49995144622978        1.59045632440256       -0.55453101526428
C            3.54835809624813        0.96049251675430       -0.38702513997827
C            2.40663365377062        0.17787339823306       -0.17125317941604
C            2.64963927972092       -1.14700840286327        0.30968535111805
N            1.86825680226179       -2.19282815948269        0.15756934774860
C            0.60565600144720       -2.19944275815534       -0.22009941496792
C           -0.37570999075976       -1.21313565712212       -0.21351059586259
C           -1.70048257482482       -1.68293515194823       -0.33953808330662
C           -2.76693963779700       -0.84628551565755       -0.15846597105990
C           -2.53658320933735        0.55024083082533        0.17896609192318
C           -3.78020539976653        1.13121469178396        0.38667762860939
C           -4.76484420628504        0.14503755318220        0.17078251904359
C           -4.16711439208327       -1.05184857098554       -0.15433008672462
H           -4.66132200053505       -1.98168983640480       -0.36596712756922
H           -5.82414057050358        0.31544665798518        0.25570936831944
H           -3.99118496509040        2.15381852586141        0.64876692505183
C           -1.22895894709484        1.06304013134097        0.20525474194969
N           -1.07901786773362        2.42204503674345        0.47975740660485
H           -1.91825319392093        2.82766716533380        0.86677543337008
H           -0.25131523529548        2.67513071898233        1.00015941307343
C           -0.13475538515580        0.22470581909927       -0.06298678331237
C            1.15022177327077        0.78659966033169       -0.36597896815083
N            1.18300155956636        2.04896062442570       -0.84672671172718
H            2.06279891971387        2.45137675363022       -1.12493090362895
H            0.32386816004034        2.51830003820120       -1.07848369084001
H           -1.85782377987689       -2.73738835873289       -0.51991603736261
H            0.26800305781722       -3.20381877265238       -0.46250040978161
N            3.84236702672770       -1.40238822616968        0.88843938209372
H            4.57364211313408       -0.71214677329266        0.88261688742136
H            4.06239767731102       -2.36018457924905        1.09935064932573
