28
 energy: -56.267939063287 gnorm: 0.000813139876 xtb: 6.6.1 (8d0f1dd)
N           -5.93009863798180       -0.07100948386876       -0.22212452894355
C           -4.78253284541241       -0.04375360654533       -0.14656175966505
C           -3.38260937651799       -0.01765391209385       -0.06443225193779
C           -2.71369307777940        1.16530848927273       -0.42902045881434
N           -1.47793878045196        1.48358804814997       -0.03249554798167
C           -0.43707971952225        0.74375262614888        0.15507192732003
C            0.78921169205784        1.38657647580601        0.52583836209461
C            1.93302089935971        0.68190269373418        0.35402399137903
C            1.87108662308861       -0.68297226454391       -0.21133550859375
N            0.73102634430140       -1.35536336941907       -0.31170330673015
C           -0.38911101356745       -0.74343063043981       -0.03106366396459
N           -1.44027831811250       -1.47957906482792        0.29436709992415
C           -2.70629952122368       -1.17909824571778        0.44325316312634
N           -3.44295926355601       -2.11395024847501        1.07347104243395
H           -4.44454430318475       -2.04211313193017        1.12386673634920
H           -2.98751099601972       -2.97453584843028        1.32452298556610
C            3.16913736994030       -1.05244701080965       -0.53680932227336
C            3.58312883523795       -2.23597166835216       -1.15207276318377
N            3.94948082924886       -3.20003297666505       -1.65807644482189
C            4.05259596039211        0.00713601274959       -0.12802659679097
C            3.33275038989984        1.04616849792539        0.40828332879831
C            3.81303719062654        2.25210782414655        0.92360881166786
N            4.17885828048785        3.25724008058009        1.34392741599035
H            5.12185437086308       -0.02753400273831       -0.23977384305637
H            0.77264487564853        2.43820237888346        0.77465495988731
N           -3.36841683970340        2.14441172947789       -1.07984817554454
H           -4.34827920702241        2.05456852071715       -1.28698440026440
H           -2.91075913039558        3.02977417206522       -1.21014620656663
