26
 energy: -52.040591312945 gnorm: 0.000873602424 xtb: 6.6.1 (8d0f1dd)
N            4.40089377596449        2.34594376525339        1.00937116663752
C            3.63746924013016        1.54436749582034        0.69356493044122
C            2.76938381915912        0.53107989972668        0.30838501311901
C            1.39297483494707        0.54535671159850        0.12391805393031
C            1.06073694121550       -0.83917701542767       -0.29516488339015
N            2.15475585613784       -1.60809574622841       -0.35562578488078
C            3.17942741289657       -0.82607265771051       -0.00431090150286
N            4.42866492754379       -1.27590875591689        0.04132353483889
H            4.60837854799778       -2.23555733013577       -0.20154050672181
H            5.18600303159330       -0.66280658994939        0.29209199125489
C           -0.25402307489962       -1.20931284145852       -0.51573895234010
C           -0.61878465037666       -2.53325212598755       -0.82823437277476
N           -0.93699225801457       -3.60275869529688       -1.09294142400642
C           -1.26583713484887       -0.23800731323534       -0.26876033128238
N           -2.46237691615698       -0.64771036482089        0.02391156718093
C           -3.55433999067190        0.08862356260613        0.28366082877741
N           -4.44990735569709       -0.48709180751444        1.09763600503265
H           -4.29794570710324       -1.43400637066557        1.39905217660009
H           -5.35271153445649       -0.05793590992465        1.20147197731025
N           -3.90263178614921        1.22973037492301       -0.29673630710625
C           -3.00819030821043        2.05110964719580       -0.81673091353267
N           -1.72986385960467        2.14603548035210       -0.58628253551668
C           -0.87872574646499        1.20853378164211       -0.18513452566811
C            0.42478165795172        1.54164686189371        0.14186162421130
H            0.68844250774228        2.57461909549007        0.30823054221502
H           -3.42531553082636        2.85036072816946       -1.42222500132629
