28
 energy: -51.461837837474 gnorm: 0.000782105377 xtb: 6.6.1 (8d0f1dd)
N           -2.27769268032103       -2.88436449139704        0.64022465012168
C           -2.02938815586645       -1.80955245162080        0.31447013798843
C           -1.88879750173085       -0.42748248243825        0.05322454474247
C           -3.14021143435835        0.26888617537278        0.07574931268406
N           -3.39356540975389        1.50489862266376       -0.32200461788173
C           -2.54089840957774        2.48654650616101       -0.49813818552251
C           -1.18743037309678        2.55919154023001       -0.21617883965207
C           -0.26416749315480        1.53102276792130        0.01537039874218
N            0.96739674510905        1.96487091185181        0.24644546367793
C            1.97604006333371        1.10870263501109        0.24300520859346
C            1.79843836190512       -0.33032928867659       -0.11064263404110
C            3.04332966192855       -0.91225749427486       -0.14449270506241
C            3.98475780562488        0.08991656423292        0.20160417675342
N            5.30829402611243       -0.09852864933764        0.28999695438725
H            5.91685537217215        0.66208521412018        0.53581036945110
H            5.70729368492634       -1.00005846857463        0.09526800914731
C            3.32090486825493        1.32399730813135        0.43775632090973
H            3.79230553171293        2.24795131205020        0.70738185579166
H            3.27243500002329       -1.93480012190938       -0.37619840693249
C            0.49185361198534       -0.79898195265271       -0.28180235838340
C            0.34109312472607       -2.14314517921119       -0.68001226686040
N            0.35021028972210       -3.21161840804591       -1.10217371875169
C           -0.59184528151868        0.08853171975210       -0.10389297986037
H           -0.73442589431106        3.54153971377339       -0.23757843873053
H           -3.02060826012959        3.39403969866622       -0.85216631765024
N           -4.24690968447540       -0.40542496959794        0.46033185249232
H           -4.22153181241304       -1.38846837006671        0.66829467035884
H           -5.12794691342904        0.06906389636549        0.36893201338694
