32
 energy: -59.163532675530 gnorm: 0.000874592989 xtb: 6.6.1 (8d0f1dd)
N           -4.89557391272058       -2.20739600851218        0.22689725586677
C           -4.14612705917889       -1.33548454902779        0.15134124866651
C           -3.30646970471490       -0.23635390381378        0.06081568171329
C           -1.91915634386063       -0.14713292293822        0.02102747369365
C           -1.63320964892321        1.28509470384618       -0.07529856263873
N           -2.76538966403734        2.01796603920234       -0.09550624555175
C           -3.76319171229480        1.14161016067409       -0.01593447375053
N           -5.04512964890170        1.51379060934383       -0.00838670779565
H           -5.26869522748997        2.49178815477940       -0.06557633665717
H           -5.77475110451141        0.82504652941399        0.05187100411758
C           -0.33234525054369        1.71145652198789       -0.11576783755502
C            0.75054641756490        0.80771250845355       -0.05596370480861
C            2.02328519268131        1.39973578834598       -0.03210847883460
C            2.05806739900645        2.81396120135810       -0.11963509138152
N            2.19870746043463        3.95245205228394       -0.20085281383096
C            3.33207314585599        0.83494730146619        0.08616554529721
C            3.65358633923205       -0.50972438655864        0.07930175301833
C            2.84301045373603       -1.64557034188252       -0.02131080607364
N            3.50422893319329       -2.83281881119044       -0.07817410359575
H            4.50539582458358       -2.85696331639742       -0.02019506487984
H            2.99942364377008       -3.70080385924550       -0.11498722221621
C            1.43276296714642       -1.67658103572174       -0.05500836877106
C            0.92047363114139       -2.99246613608464       -0.13902859047260
N            0.60384697592486       -4.09575062103217       -0.21822680472341
C            0.45976917098817       -0.63544593348634       -0.01179353339250
C           -0.86776831464721       -1.04955003365839        0.03984168704791
H           -1.09483123435369       -2.10457066295776        0.08978683679888
H            4.71509093733511       -0.72200726312184        0.14713574161834
N            4.36954607572893        1.70463931378851        0.22387953127115
H            5.31235700127646        1.35956293410553        0.21355456434846
H            4.22305799736223        2.69591522863570        0.14642728733028
H           -0.13990411468333        2.77151377384414       -0.16875625655919
