27
 energy: -51.762856581373 gnorm: 0.000873837413 xtb: 6.6.1 (8d0f1dd)
N           -3.46095394457161       -3.15289469560046        1.00971407586311
C           -2.92885451515836       -2.18064510314297        0.69913728343012
C           -2.33830223696912       -0.97707407223782        0.32499777460320
C           -0.98103620911026       -0.70582266170619        0.12784353589882
C           -0.86381477937421        0.71279485631135       -0.26318366417910
C           -2.16491962885794        1.25422580883330       -0.29080963563050
C           -2.53280083203212        2.56059459517831       -0.60161572298650
N           -2.87345811275666        3.63105379997787       -0.85185852857378
C           -3.07324095057935        0.22706549698210        0.06647205220592
N           -4.39973189878430        0.34629122076523        0.15138727248222
H           -4.96448564210822       -0.44844012522691        0.40168100483669
H           -4.84269780447843        1.22785089665650       -0.04770408215560
C            0.36847864972886        1.29005693598805       -0.45905695724711
C            1.51611777472912        0.50904223203580       -0.25647729856202
N            2.64656245223754        1.10660463101730        0.02221219133548
C            3.84200722297138        0.55098151437837        0.22941672246142
N            4.68126101322954        1.24974641543757        1.01141849000326
H            4.40017966451423        2.15277887016996        1.34903239085211
H            5.64152962127461        0.96034219208859        1.06735428146366
N            4.34932132400300       -0.52108083518650       -0.37913454742206
C            3.58884135206936       -1.48006675609150       -0.85846141226918
N            2.34814342029498       -1.78466866852323       -0.57722856394943
C            1.37319971536462       -0.98723893099528       -0.17758587440357
C            0.13479232193531       -1.52565405025803        0.15277953583033
H            0.04418579740568       -2.58771287019799        0.31996140682032
H            4.10812342762046       -2.20890007202689       -1.47220509291875
H            0.47369167960169        2.34638811057515       -0.65160082819156
