25
 energy: -43.521613140693 gnorm: 0.000266715224 xtb: 6.6.1 (8d0f1dd)
N           -3.76239908018766       -2.55363456247884       -0.00848693498531
C           -3.08452354370821       -1.62314241977817       -0.00685482555214
C           -2.34046869880747       -0.45065417854567       -0.00647184285718
C           -0.96599142595511       -0.23978205410289       -0.00458745852738
C           -0.80355781198724        1.22547034867900       -0.00504053322998
N           -1.99558264584966        1.84820684089529       -0.00718089644157
C           -2.91181231033170        0.87708679591968       -0.00807724191916
N           -4.22220833649585        1.13928052079060       -0.00985558371649
H           -4.52820540489423        2.09599827673472       -0.01187558271065
H           -4.88995874239356        0.38848771685396       -0.01179598028263
C            0.46938168079021        1.73317156314539       -0.00340798084630
C            1.56868722064582        0.84845800340944       -0.00140613098195
C            2.83897926319374        1.42890955266270        0.00015362409345
C            4.11033450203478        0.87283061147692        0.00218875764151
C            4.47683949094655       -0.45908499009824        0.00327510419200
C            3.63885324490183       -1.57396180086306        0.00259604296853
C            2.26625961370658       -1.61517583313075        0.00070071948963
C            1.29004927196583       -0.59372981377580       -0.00114580343669
N            0.05652961365407       -1.08036344679253       -0.00267590846711
H            1.80960508199110       -2.59781017945633        0.00050616303875
H            4.13859503250050       -2.53461611207724        0.00370854341888
H            5.53995041393276       -0.66373154406201        0.00484426079860
H            4.92514659114593        1.58659924319278        0.00303104943091
H            2.82238971908307        2.51416407342133       -0.00034147384910
H            0.63601480861789        2.80081904117970       -0.00366966426861
