27
 energy: -50.945198274897 gnorm: 0.000428103330 xtb: 6.6.1 (8d0f1dd)
N            5.46436330953366        0.00678465700922        0.09554423657283
C            4.31149816552316        0.00578796891936        0.06642855039822
C            2.91362186575229       -0.00140938962753        0.06823208393705
C            2.24368598077145        1.25331737604407        0.14096191715402
N            0.98478375956726        1.48725349518334       -0.13664129856283
C           -0.09163143628634        0.73647503516369       -0.08300657783568
N           -1.23031199486196        1.28487951919780       -0.43307226781947
C           -2.38120261290521        0.64385182711668       -0.36149427107151
C           -3.68224227505912        1.07814201234429       -0.36800461562365
C           -4.49893376151560       -0.00953104431311        0.05513882914608
N           -5.84024382471549        0.04411444146579        0.15943579988587
H           -6.33718787976024        0.87418287703267       -0.10745046253363
H           -6.35588033071661       -0.75129619600647        0.48927856723874
C           -3.69696540082828       -1.10879237087911        0.41962506256663
C           -2.38860829817785       -0.77443246814625        0.13166575646399
N           -1.23757965369869       -1.36410965181774        0.32372571665335
C           -0.08987696960836       -0.75792178322026        0.16767570347295
N            0.96187022112662       -1.51441645895568       -0.09480090104961
C            2.25345145700453       -1.24213438948937       -0.12611481955891
N            3.01350365521930       -2.32887919356024       -0.38604468880039
H            2.54722898230272       -3.21388576440898       -0.47611923785987
H            4.01641023575606       -2.27086773489162       -0.40409696511483
H           -4.04367499695405       -2.03947372370173        0.82299666268128
H           -4.02928748849085        2.06284826266285       -0.61285908590562
N            2.97926031002873        2.35474239325721        0.42153432149675
H            3.98329031505428        2.29979892658179        0.43726243326417
H            2.53286224653816        3.24908294983920        0.31589858400442
