28
 energy: -51.472290609907 gnorm: 0.000525185796 xtb: 6.6.1 (8d0f1dd)
N           -2.22501694609590       -2.82784572450119        0.88149891917736
C           -2.01447631015997       -1.77566009617127        0.46616568700069
C           -1.90770092874574       -0.41896163209542        0.08984577715548
C           -3.15731238293898        0.23838644328213        0.00652690544521
N           -3.40807199279338        1.47592573374849       -0.43571983562211
C           -2.56958374146836        2.46599000387968       -0.50754855660027
C           -1.22888937998944        2.55608837436087       -0.11498528736679
C           -0.29843750861128        1.54494366838682        0.08533600073850
C            1.02886734263520        1.95114609742580        0.34268153079832
C            2.06580455493025        1.06128904345320        0.25959950894949
C            1.80304066796419       -0.33988247542085       -0.11736414499776
C            3.03020608973990       -0.93421395066247       -0.20552776184251
C            3.96843957762108        0.10471162940005        0.13251707386877
N            5.29648132320722       -0.03860281131671        0.17922847345075
H            5.86076352395756        0.75246261073757        0.43533246257797
H            5.72619904689428       -0.92429668081305       -0.01705141124442
N            3.38537552382168        1.27764891165825        0.40370524017658
H            3.27181644548293       -1.94716597826179       -0.45785064843011
C            0.46555513263642       -0.77527697404119       -0.26120028530587
C            0.29033835931284       -2.11400631827064       -0.66366436368450
N            0.26454616938340       -3.18119306116764       -1.08881071425696
C           -0.59425449436265        0.10985217829596       -0.07191938426613
H            1.23104536488462        2.99407405332466        0.53321144534580
H           -0.83663323800184        3.56423795083466       -0.05826517977908
H           -3.02342900281769        3.37814297344424       -0.88530177699847
N           -4.28378180382643       -0.43954354572386        0.32036090728228
H           -4.25944382512684       -1.41590165474817        0.55805896749922
H           -5.16210460943376        0.01942534326183        0.15577449692784
