26
 energy: -47.241780098254 gnorm: 0.000890007476 xtb: 6.6.1 (8d0f1dd)
N           -4.28445071528970       -2.21887694579973       -0.82677876695082
C           -3.54568042086862       -1.37931247274531       -0.54921042742153
C           -2.71278997418524       -0.32128731992545       -0.21705419515348
C           -1.33771457323149       -0.26829559372659       -0.04459538415908
C           -1.05423773768157        1.13395830010029        0.30564388944724
N           -2.19136507869982        1.87099416655842        0.33869961339522
C           -3.17427299823387        1.03807291190022        0.03399989082006
N           -4.45336164637338        1.41933121217635       -0.03613939657857
H           -4.69076750961064        2.37451955633673        0.16467618820496
H           -5.17217434251630        0.74980306910070       -0.24808011072455
C            0.22954292087984        1.54404548501032        0.51782775275611
C            1.29995977971088        0.62752616788286        0.35669101064616
C            2.56591224423115        1.13378504900803        0.18790267820217
C            3.76036943803173        0.42330062671070       -0.16002243489033
N            4.03836859252066       -0.83889304983930        0.06819977322693
C            3.16584790228435       -1.74820504209365        0.49763027730689
N            1.87908622013931       -1.79827253326984        0.42291834458514
C            0.98973569130207       -0.81760950220419        0.20553973477434
C           -0.30946286535883       -1.20693093416130       -0.05580774599707
H           -0.51699056935627       -2.25481073883008       -0.20844502987823
H            3.63836510529854       -2.65699010378084        0.86270335308328
N            4.75931377351467        1.14364618387175       -0.71376188357213
H            4.67156412673066        2.12863888675371       -0.88180572202307
H            5.61441089122051        0.66939307824563       -0.94440067379764
H            2.65933071332090        2.21471523090535        0.19874986504412
H            0.44300261032149        2.57910993271549        0.73753388545459
