28
 energy: -55.492717405206 gnorm: 0.000844367296 xtb: 6.6.1 (8d0f1dd)
N            4.24175007453433        2.66841885675411       -1.16537413568894
C            3.57206800097552        1.80470998436014       -0.80460055192233
C            2.85311018076418        0.70221905766839       -0.36071870880458
C            1.49589456530747        0.51178048057541       -0.16246272740744
N            0.46975613572064        1.34370297242546       -0.26322432044195
C           -0.73684877976569        0.89142382012345        0.01518672370647
N           -1.66236120465501        1.81816333157481        0.17812353690146
C           -2.96501023515401        1.71834345577038        0.27777118406534
N           -3.77916240800797        0.77538720131517       -0.22630696443821
C           -3.44006294085404       -0.47474994109602       -0.41318861937381
N           -4.36900864543045       -1.25262793982241       -1.00055384438714
H           -4.21724623251180       -2.23447438401807       -1.13987204206335
H           -5.23490436661338       -0.83227242604119       -1.28815871630289
C           -2.23218502471380       -1.12779250516563        0.00748682533148
C           -1.00716382605381       -0.56055306770220        0.22517174914054
C            0.11993050310810       -1.41028575489935        0.50468846599332
C           -0.08306430159718       -2.75630751416928        0.86407503663457
N           -0.28700054747901       -3.84808671202016        1.15523210396143
C            1.37867307108708       -0.88990917151668        0.31507012860162
N            2.58428486975441       -1.47487797046096        0.42191590301608
C            3.46611343752691       -0.55888678806121        0.02559561794318
N            4.77449318683767       -0.80108455282098       -0.00783748249404
H            5.41640132324216       -0.08767592073439       -0.30851633847388
H            5.11120173189520       -1.70244876702744        0.28415951712882
H           -2.28714616366041       -2.21043692150584        0.06360799021994
N           -3.59536944966083        2.76499216453082        0.84293091865573
H           -3.05067733645984        3.57835765474006        1.06995326448001
H           -4.59489389493831        2.82794682452535        0.76937145451762
