31
 energy: -59.439150574983 gnorm: 0.000901281621 xtb: 6.6.1 (8d0f1dd)
N           -5.57598976726889       -0.74570956488803        0.13067213208654
C           -4.43169568142070       -0.63880818100180        0.06994029751002
C           -3.03184447904619       -0.53030905318510        0.01281177457490
C           -2.30221373672662       -1.71968868481749        0.24020356687789
N           -1.04870396875607       -1.95434400070261       -0.10947694799254
C           -0.01383949858371       -1.17195157951734       -0.25056844714466
C            1.17922020612401       -1.81994667420183       -0.65217072838761
C            2.38479646235382       -1.21726296895737       -0.43156863762364
N            3.62733951139652       -1.71130566344460       -0.61487157614634
C            4.45316473176453       -0.78318821571290       -0.13567259829431
N            5.77809330474622       -0.94762715330584       -0.15082662731481
H            6.39269905161572       -0.23470105189137        0.19855879719274
H            6.15721424797337       -1.78820147723135       -0.55107173423841
C            3.76741796993586        0.37791090475517        0.39216309477643
C            2.44276051787534        0.11948960671552        0.19769519745964
C            1.24329016928127        0.84567626389880        0.39983309994262
C            1.35862661121335        2.12794192460749        0.96904725722354
N            1.52786841891127        3.12001281506439        1.52347105910055
C            0.01976055369710        0.27167890439210        0.06889737546437
C           -1.12078925655650        1.09192722388087       -0.15766325366451
C           -0.85202112102660        2.45235316674963       -0.43284710426438
N           -0.72150277625144        3.55036956239546       -0.74805889879479
C           -2.48562762000329        0.74603738364390       -0.27430678494117
N           -3.36107080123712        1.71718613958292       -0.62579266769550
H           -4.34854008912281        1.52670981645543       -0.62577000049237
H           -3.04838207035425        2.66651293368978       -0.73915055090245
H            4.23039984509913        1.24167074573399        0.82569475325500
H            1.11423362354236       -2.83913025616878       -0.99628133144005
N           -2.94301816420077       -2.79375704169131        0.75133852791785
H           -2.44643293936460       -3.66659395829433        0.78620101266891
H           -3.93447949651025       -2.77565089955109        0.91630141188624
