30
 energy: -60.497496422694 gnorm: 0.000797671293 xtb: 6.6.1 (8d0f1dd)
N           -5.35372757368585       -1.10916043564240       -0.59169158969257
C           -4.25917487910716       -0.82016429977181       -0.39233314016107
C           -2.91354252297860       -0.46154563866926       -0.15456795622375
C           -2.03600256586169       -1.55502879047446        0.10649947508636
C           -0.63890533501002       -1.48121727630914        0.18715005210205
C            0.02101314896244       -2.71455780614745        0.42145501959717
N            0.47951564599229       -3.74622304492258        0.62884680216678
C            0.26933755784171       -0.39453486722172        0.03742694066474
N            1.52363090489440       -0.78718958088718       -0.03757058508448
C            2.51481705078595        0.08015708657647       -0.00410684212670
C            2.27024965784828        1.52015234931381        0.19054060753890
N            3.44741929304335        2.19693326625113        0.19364523946679
C            4.38308542906254        1.31140825303224       -0.04118573708935
C            3.88483141093331       -0.02325694389407       -0.22614680712533
C            4.64612421324270       -1.15341902994895       -0.51953877067639
N            5.29845192223044       -2.06453457163676       -0.77382187932185
H            5.41945006656534        1.59794739152430       -0.07342211660728
C            0.98236130172866        1.96063548995880        0.16396242239936
C           -0.09013859556183        1.02619841038291        0.07788016458818
C           -1.38831990405311        1.53948140205446        0.11753217654082
C           -1.50533660405879        2.92342233637786        0.40491133999364
N           -1.66332948801467        4.03516833846417        0.64446088019662
C           -2.65405859281165        0.91563264516512       -0.13951446471947
N           -3.69506174054688        1.74763894608974       -0.35826034933974
H           -4.62052345892472        1.37739113485108       -0.49750263789595
H           -3.57290958572270        2.74582761534261       -0.32786066087435
H            0.77209813513284        3.01963104460292        0.15519076560419
N           -2.60935020092580       -2.76846560794176        0.25701213558547
H           -2.03080421062654       -3.58253195844187        0.38341412157546
H           -3.60321014509863       -2.88590499636198        0.15665290112303
