26
 energy: -48.024098823651 gnorm: 0.000593323954 xtb: 6.6.1 (8d0f1dd)
N           -2.93043292015831       -3.52682159143362        0.00596354906864
C           -2.48414395642842       -2.46646810822679        0.00649120759835
C           -2.00001977909925       -1.15993986581001        0.00578563459180
C           -0.66347478718810       -0.73350615887445        0.00385358949902
C           -0.66379423643260        0.73323130308151        0.00410645494662
C           -2.00052873520804        1.15907776418724        0.00578307168669
C           -2.48523073946926        2.46538003037594        0.00534879655403
N           -2.93199197856132        3.52550832788870        0.00955682421536
C           -2.82960216130913       -0.00061456226491        0.00707159711960
N           -4.16512110283701       -0.00090904362855        0.00892982693600
H           -4.67134874422109       -0.87068667918111        0.00958798139244
H           -4.67173112831217        0.86864560699294        0.00973748932238
C            0.53205222330426        1.42390115150125        0.00241715946473
C            1.75600648589132        0.75251080491266        0.00051617851765
N            2.81422558252602        1.55440011110574       -0.00121422297732
C            4.08789421760866        1.24592249245176       -0.00321414034833
C            4.71880153436426        0.00103689670503       -0.00385027819779
C            4.08844064483684       -1.24412526191442       -0.00266201074736
N            2.81490627255604       -1.55315994634132       -0.00095968323213
C            1.75633593792651       -0.75173238978001        0.00040341554250
C            0.53267398989589       -1.42365538871889        0.00202360110040
H            0.55092522834824       -2.50322497479495        0.00183622483766
H            4.73126457056562       -2.12030566007319       -0.00333066742235
H            5.80072483157357        0.00127415621426       -0.00542078160642
H            4.73033367213465        2.12238389986854       -0.00443944202958
H            0.54983129079282        2.50347791385664        0.00251678346738
