29
 energy: -55.211516154613 gnorm: 0.000920936945 xtb: 6.6.1 (8d0f1dd)
N           -4.59672102325502       -1.97429347355906        0.06998540563794
C           -3.80988227413356       -1.13435984061697        0.04341505899997
C           -2.93432977048559       -0.05629164782532        0.01098400717286
C           -3.35447719305587        1.32783151272114       -0.02232446401850
N           -2.33529112800382        2.19146127912688       -0.04745200550929
C           -1.22283761343089        1.44906276709132       -0.03135234089178
N           -0.00351690008093        1.90955833631354       -0.04148542873653
C            1.02924119502337        1.04277520462203       -0.01970571769942
C            2.25626793009855        1.67823929637227       -0.00976094411966
C            3.57620786715363        1.17043490625406        0.01773217857883
N            4.00644436542485       -0.07712846693259        0.00469096900603
C            3.26870381947596       -1.18201085936684       -0.01766307959383
N            4.01185339678402       -2.31317828327926       -0.04850176477320
H            3.58385477847897       -3.22047296733575       -0.05035269039285
H            5.01213560657734       -2.22865557829832       -0.04187709604781
C            1.87165038542860       -1.34395374895426       -0.00556921842129
C            0.83940002924528       -0.41503874661546       -0.00154039991866
C           -0.49286795754302       -0.90654118542430        0.01477618120855
C           -0.75046112130720       -2.29113901835540        0.03751974100277
N           -0.95597597879750       -3.42162466739766        0.05567156931026
C           -1.54861208944014       -0.00133154700704        0.00451421045117
H            1.54822776327616       -2.37981038652803       -0.00121414262264
N            4.57216322826297        2.08476970842735        0.05403246262137
H            4.37823615615295        3.06876578204191        0.06962712249316
H            5.52131776190895        1.75759116546857        0.07395021189177
H            2.17095477746608        2.75778568994754       -0.01861003329472
N           -4.62366098143843        1.73380844473879       -0.02927120390138
H           -4.82047725758867        2.71910456150724       -0.05345370583270
H           -5.37275511429782        1.06333522836437       -0.00848906810028
