28
 energy: -56.265204022484 gnorm: 0.000934746407 xtb: 6.6.1 (8d0f1dd)
N           -5.64541765163658       -0.76738462250820       -0.27801398247423
C           -4.50874938661728       -0.61804284824992       -0.18695969412439
C           -3.12041480293083       -0.44243239191798       -0.07537558394076
C           -2.57178774496842        0.80892744001106       -0.40853179868727
N           -1.36225225474105        1.24225655226142       -0.03726874209606
C           -0.25798203408145        0.61343964786126        0.19427399280744
C           -0.06468623800972       -0.84878340486328       -0.04454123132824
N           -1.04382737268318       -1.71790398916735        0.15585514804261
C           -2.32873613137037       -1.55850244405314        0.35807087995462
N           -2.96276256154757       -2.60928825338285        0.91602760049116
H           -2.42711960036874       -3.43775649929872        1.10874099518133
H           -3.96611080403253       -2.64079996671379        0.96900165579406
C            1.20579696821053       -1.32368450912430       -0.33897422396227
C            2.29551476023298       -0.47855539940586       -0.19062585903701
C            3.67610196241993       -0.62984796508753       -0.31817523567283
C            4.38006534506607       -1.74504138648415       -0.76679024358472
N            4.95625099780264       -2.66907062123211       -1.13472213816583
C            4.23334553038900        0.61548255121545        0.11596704275270
N            3.33344325760545        1.49723076987889        0.49594316654630
C            2.13002290587984        0.89511140732478        0.33818092648759
C            0.87680861260383        1.41329571850095        0.56513716038649
C            0.66084162121277        2.73389650145900        1.00768376188452
N            0.44858072989525        3.79979477829462        1.37254962013334
H            5.28182313381403        0.85519376009354        0.14697974467871
H            1.33682681155110       -2.36307849635448       -0.59697396189941
N           -3.31676064821322        1.73738674875971       -1.03428489266576
H           -4.28829916067052        1.57084576598779       -1.23441749005473
H           -2.93979775211006        2.66556445209534       -1.12540769244735
