28
 energy: -51.467109098764 gnorm: 0.000770091913 xtb: 6.6.1 (8d0f1dd)
N           -2.18790166647488       -2.91749534136455       -0.61949483917118
C           -1.97918713939281       -1.83563601518763       -0.28983325493473
C           -1.86951461294487       -0.46141472282439        0.01523990940992
C           -3.09615421068252        0.26896220179352       -0.16082908292027
N           -3.38232924460102        1.45424107741241        0.34702877164839
C           -2.50910966406593        2.33214707225902        0.79149034395174
N           -1.24584378692580        2.45847006226066        0.50307916387411
C           -0.36832100305453        1.54141804303579        0.13860402646618
C            0.88461362195135        1.98341826006207       -0.28129805012540
C            1.97124445164696        1.12589507274165       -0.27448067882545
C            1.80265827209817       -0.26684206428387        0.21665271985390
C            3.04098422922227       -0.85382987048760        0.25624338882218
C            3.98530055153883        0.11086968221934       -0.20464470237076
N            5.30417705191629       -0.10642555198072       -0.30889572441516
H            5.91869591626499        0.62187338090921       -0.62708880793125
H            5.69353568369932       -0.99526668026644       -0.04851640175130
C            3.31974945232223        1.31311586164227       -0.52442634843609
H            3.78726362880537        2.20956496389369       -0.88295103335401
H            3.27207644436620       -1.85472148688867        0.56609653286324
C            0.51081868828258       -0.75908985300908        0.47924152139473
C            0.38916670277546       -2.08888892610319        0.92411474877485
N            0.37153625465049       -3.14934519762600        1.36612797923459
C           -0.60171186734311        0.07193381339516        0.29068695262219
H            1.00860515485448        3.03618669911981       -0.48429222449192
H           -2.94090784653437        3.15440386224741        1.35368343778595
N           -4.11075263475458       -0.32625318135559       -0.82274933375217
H           -4.99838996233945        0.14551653328218       -0.82855696669899
H           -4.05564651778050       -1.29311217609535       -1.09427972102398
