26
 energy: -51.245219052486 gnorm: 0.000411611854 xtb: 6.6.1 (8d0f1dd)
N            5.46414248732067        0.04918618610643       -0.12181418479660
C            4.31303437355633        0.03078677952349       -0.10070744876004
C            2.91264803491893        0.00858076698985       -0.08482050584358
C            2.25160174177066       -1.24260634138052       -0.21758851309206
N            1.02767610807452       -1.49560541778480        0.20185612908158
C           -0.03822970879198       -0.73868899215083        0.26591891873857
C           -1.21807430296252       -1.24043493559300        0.83169227629249
C           -2.38329451229364       -0.58020469790916        0.52038519033580
N           -3.66691001741321       -0.88805285852479        0.70259599112436
C           -4.31989422932375       -0.00738226928129       -0.08491069629351
N           -5.64530944534464        0.00178267480041       -0.17923476505382
H           -6.08431029828844        0.66218170110361       -0.79560543834261
H           -6.18350015424919       -0.64740727591961        0.36621110969925
N           -3.56126617219153        0.85527467347287       -0.81631584333571
C           -2.32787000442273        0.57454113137799       -0.44436712231411
N           -1.20364261212555        1.16386425793760       -0.78361121578377
C           -0.08559495505668        0.65612561022961       -0.30008632095418
N            0.94242082145544        1.45571448911651       -0.16688330784073
C            2.20921952024184        1.22264439659639        0.12676477798623
N            2.88731123157777        2.30020183276887        0.57490501154052
H            3.88754647560459        2.27210514515753        0.67249575910479
H            2.40714251497705        3.18324961629657        0.58178948891253
H           -1.20992546973261       -2.18549817170634        1.35259776877236
N            2.95109288852383       -2.31033823464841       -0.66008822894036
H            3.94419848473333       -2.24113533288099       -0.80088413905224
H            2.52175746984093       -3.21682787819737       -0.59873109578533
