23
 energy: -44.050118221041 gnorm: 0.000735693008 xtb: 6.6.1 (8d0f1dd)
N           -1.84762587205016       -3.08092807038875        0.66748029831028
C           -1.67216103699155       -1.97439840945973        0.40925825062116
C           -1.52417230424944       -0.61311268202846        0.08302826852725
C           -2.73959685750039        0.10889287389466       -0.13424881687347
N           -2.94491565908168        1.41537611246971       -0.13473084690428
C           -2.04806500524526        2.36219622597837        0.07841959987508
C           -0.67415312513132        2.33631258652122        0.13177940137717
C            0.21228419126061        1.25364039441910       -0.05996475729112
N            1.49676420672955        1.54392014290781       -0.08945746998163
C            2.43148218348380        0.65012923368670        0.03248400678098
C            2.01821965756077       -0.80161759878966        0.09866191043016
C            3.20922342999055       -1.50956280330309       -0.06938278305429
C            4.20536375391288       -0.54464525547750       -0.11701999016855
N            3.72971881729987        0.71627333231107       -0.13218877498052
H            5.26637552604778       -0.70429980101475       -0.18092653023423
H            3.32134964699635       -2.57503442541523       -0.06533985287611
N            0.75638296474825       -1.07991389979524       -0.02352526205710
C           -0.19358283490394       -0.15809387702939       -0.03705461019545
H           -0.17492838014287        3.27015424971510        0.35119151411456
H           -2.51421758773387        3.33471753683663        0.20899237080358
N           -3.86119255088431       -0.61425935353600       -0.31542542894463
H           -4.72812725311720       -0.11475710176360       -0.41301716818192
H           -3.85217767589880       -1.61917032133899       -0.28350786869730
