27
 energy: -51.758347202306 gnorm: 0.000895948127 xtb: 6.6.1 (8d0f1dd)
N           -4.50966576721843       -2.42835895659553       -0.21470019002786
C           -3.70894462153252       -1.60449230809353       -0.14681341862838
C           -2.80838899100253       -0.55040807025319       -0.06088387174608
C           -1.41713118326736       -0.54046318862801       -0.02535506087886
C           -1.05392859557879        0.89222716836415        0.06937455313592
N           -2.13754107995539        1.67219636365800        0.09694766763292
C           -3.18721315240924        0.84017944636704        0.02245749484355
N           -4.43851497611194        1.29492071983581        0.02468557496373
H           -5.21372022824004        0.65741582931230       -0.03685520550009
H           -4.59271472558678        2.28678195230021        0.08474628812494
C            0.29012601148789        1.21755575567592        0.08220230885541
C            0.73857370021866        2.55500923888657        0.13171783233774
N            1.10787010154088        3.63984519606319        0.17416392312316
C            1.25392486230705        0.17027590017479        0.01143312288968
N            2.49669422281605        0.59636816417046       -0.03290417051185
C            3.65485360847221       -0.04298131378913       -0.07273760533332
N            4.70541362833797        0.79395012778732       -0.22202653088842
H            4.51196379116912        1.78049203780508       -0.24784699689034
H            5.65406325867748        0.46738605362795       -0.18710024232935
C            3.91288464775567       -1.42680606957224        0.05195367569663
C            2.97912963117435       -2.43880722981794        0.11327416863217
C            1.59708404860237       -2.34774646583641        0.05277230926677
C            0.76266257870576       -1.22305077726102       -0.01404098660716
N           -0.53432597729307       -1.52066737686553       -0.05316561174708
H            1.04200900606825       -3.27675729556223        0.08399940591007
H            3.37610051542741       -3.44223115222039        0.20277622136877
H            4.95690980473483       -1.70817758703350        0.09763058090747
