28
 energy: -51.467418036262 gnorm: 0.000551207280 xtb: 6.6.1 (8d0f1dd)
N            5.27398945831086        0.18528726997371       -0.28665870654815
C            4.13487733828510        0.07282918901215       -0.15911174302327
C            2.74905276556440       -0.06053470701639       -0.00780087160000
C            1.98583332859362        1.12649719201812        0.33190469151934
N            0.70982904444832        1.30595925315850        0.20801039858486
C           -0.29569315683687        0.42793807033684        0.02297334635425
C           -0.15042631802984       -1.01544027986831        0.26973314771861
N            0.93757276793975       -1.70793648067682        0.14597420732574
C            2.18075112276237       -1.32031277658090       -0.20098291517476
N            2.93054196049955       -2.33567674505865       -0.67979408296318
H            3.90678989169695       -2.20522563894184       -0.88019438731488
H            2.52949932914814       -3.25606192449928       -0.70615574011837
C           -1.32964012014236       -1.79429638226314        0.56894956494597
C           -2.54609081601380       -1.27730934556735        0.30445197797051
C           -3.88188819481499       -1.84769005060057        0.37222307329739
C           -4.74915241347954       -0.90104304209682       -0.04529875702138
C           -4.03035447936573        0.31146808308890       -0.39480262158642
C           -2.70058514635464        0.09380890734430       -0.18615881591140
C           -1.55348397905068        0.93300026949048       -0.26612747936626
C           -1.70680827323117        2.29474120224299       -0.58451606237985
N           -1.85220902400207        3.40070999731786       -0.85750057995224
H           -4.48838595715300        1.21662005554552       -0.74724637855553
H           -5.81738992308553       -0.99862675891943       -0.11847963346200
H           -4.09888407412322       -2.84718410317418        0.69609661296255
H           -1.18029077472699       -2.81288048361216        0.89459592710817
N            2.68755782120723        2.19699261266353        0.77245644178138
H            3.69022077044463        2.21622120820783        0.69998118482398
H            2.18473241700860        3.06341000197565        0.86285792488537
