26
 energy: -48.040853827128 gnorm: 0.000994787117 xtb: 6.6.1 (8d0f1dd)
N            4.01917504205108        2.68214715776496       -0.01026192188635
C            3.28922193757915        1.79286473506700       -0.00765079488175
C            2.47465962379485        0.66657805121786       -0.00737555127981
C            1.08886675231609        0.54794022269765       -0.00569748080538
C            0.83386931000493       -0.90583596952302       -0.00543860581946
N            1.97323382227820       -1.60318585441075       -0.00693032807175
C            2.95819193641707       -0.69317610145423       -0.00827313669448
N            4.24083261096743       -1.05296429943160       -0.01002744124051
H            4.46946549522716       -2.03196379335110       -0.01042047070369
H            4.96681953941549       -0.35753075159350       -0.01092105629629
C           -0.48344283945267       -1.33126869167408       -0.00336055009951
C           -0.76410122308277       -2.71501109235781       -0.00042902052567
N           -0.98732941441538       -3.84055228713123       -0.00648204923857
C           -1.52820987342068       -0.35909069877666       -0.00207770086566
C           -2.83633632999572       -0.84338079603028       -0.00016400461782
C           -4.06293370357621       -0.19076015647311        0.00162912915473
C           -4.32872975129496        1.16359962897091        0.00219322342682
C           -3.40786339399962        2.21243888822315        0.00105734318208
C           -2.03727967726576        2.14684659695204       -0.00095567650466
C           -1.14044859754177        1.05330220586738       -0.00248722283744
N            0.12577181728069        1.45250419870552       -0.00422387645231
H           -1.50436792383341        3.09031894798006       -0.00153294212517
H           -3.83183185908299        3.20862979197391        0.00185234414781
H           -5.37317356313005        1.44799336143305        0.00371565479926
H           -4.92693402191004       -0.84345311104501        0.00272046811750
H           -2.90379454433013       -1.92666900920103       -0.00018325598192
