25
 energy: -47.503905617970 gnorm: 0.000854464270 xtb: 6.6.1 (8d0f1dd)
N           -2.06084586612079       -3.18633090090282        0.43842794626400
C           -1.92151399051619       -2.05839375681589        0.26645125559919
C           -1.84213849733454       -0.66806047540627        0.04313948984838
C           -3.08732254506301       -0.00363256414902       -0.12463570803154
N           -3.35582569555992        1.29809930999255       -0.09693534921072
C           -2.50328538753271        2.28285540860650        0.07716552962630
C           -1.12082923049332        2.31814248666229        0.11028765154744
C           -0.19219908481225        1.28051893572479       -0.05976585446092
N            1.08287174663658        1.66855976796625       -0.09422404507089
C            2.03658362331842        0.78513209616877        0.00527426367026
N            3.34323087054327        0.94795779292408       -0.12033103882412
C            3.87559193740617       -0.29333436214695       -0.03767640363184
N            5.20072096299725       -0.45731174158607       -0.09933941606633
H            5.60867625931244       -1.37426852120050       -0.09271835210503
H            5.78248412174140        0.35756941654373       -0.18481615328055
C            2.90150008365875       -1.32546235292986        0.05829335014144
C            1.69824551397426       -0.66916846157349        0.14000880075111
N            0.43597175353539       -1.05217320858416        0.09437925606722
C           -0.52686108194219       -0.14845049080717       -0.01431161183115
H            3.08671179267474       -2.37978807122006        0.08175202962621
H           -0.66294810497237        3.28498080845077        0.27239204582083
H           -3.00733728852790        3.23923861589519        0.18831335519265
N           -4.18968010785840       -0.76524013035021       -0.28823810678788
H           -4.14205298965272       -1.76899394205161       -0.26337062886007
H           -5.07691916571236       -0.29600907781110       -0.33657072349260
