32
 energy: -64.737396541415 gnorm: 0.000958942129 xtb: 6.6.1 (8d0f1dd)
N           -5.34292499332021       -1.18104319268887        1.08402537813504
C           -4.30573789328285       -0.84802078620927        0.71798629439234
C           -3.03080492066810       -0.43280517547139        0.27445107596977
C           -2.79133296522161        0.94019609048336        0.30412007684518
C           -1.60450692913397        1.59028087294703       -0.19692193619696
C           -1.81562472308622        2.96244467676281       -0.48780548195206
N           -2.07196744603977        4.05414972081997       -0.73236745178754
C           -0.30880567072226        1.10243209652453       -0.30878373161612
C            0.71828407062251        2.07721794458688       -0.53836152632944
C            2.01776582870758        1.75260975616034       -0.33502794115567
C            2.40477625240996        0.41004725945645        0.08671730611051
C            3.77119942434255        0.47370347219313        0.29448207235083
C            4.66358349247865       -0.50937785669466        0.71701942218956
N            5.43219335511252       -1.28826617788179        1.06781946950387
C            4.13235063084822        1.84410981054062       -0.03892982920827
N            3.12419929462515        2.57403198939894       -0.39921036926714
H            5.13060739432403        2.24257702500450       -0.00299159951484
C            1.41670403121141       -0.59407439120185        0.14074282076024
C            1.79682781936751       -1.89248881590764        0.54852397112958
N            2.12024546498069       -2.90467869233844        0.98034952641485
C            0.08386942944722       -0.28676333791468       -0.13132987366606
C           -0.81092388902457       -1.37601031719501       -0.41305921850695
C           -0.20666592811953       -2.51749784259540       -0.98867781756877
N            0.18699823849083       -3.43078106051842       -1.56470247689511
C           -2.19487218231676       -1.47180851131373       -0.24857472330443
N           -2.80443769360661       -2.63830705163635       -0.55209420588047
H           -2.25593053576822       -3.43461207957074       -0.83226098537505
H           -3.78628421084097       -2.76460188749131       -0.37405458755215
H            0.44693285214572        3.09386836544487       -0.77641627138425
N           -3.75191488154718        1.74925222117257        0.79767057552137
H           -4.62990876894577        1.36363690777667        1.10415628882555
H           -3.64531994977018        2.74949102605720        0.77784618621311
