27
 energy: -56.539401717600 gnorm: 0.000619076872 xtb: 6.6.1 (8d0f1dd)
N           -5.69580972926555       -0.59880039524643       -0.06739996709510
C           -4.56619833018996       -0.39053553621642       -0.01217435655806
C           -3.19032272140815       -0.12757641447397        0.07843369827843
C           -2.32345411577638       -1.20673541861570        0.40636518859125
N           -1.04093288924603       -1.23413728910374        0.09308059102944
C           -0.14358074345294       -0.29638978830895        0.04035329262762
C           -0.40875676805619        1.14475709764558        0.37447073923775
N           -1.54573804713095        1.69702276271777        0.04428128931766
C           -2.72578521690771        1.17142293610902       -0.25897400148536
N           -3.56594354878232        2.02887950976486       -0.86280976925078
H           -3.25473488109873        2.97502630071843       -1.00173678100069
H           -4.52109377907037        1.77802571012920       -1.05250109786339
N            0.56788455184599        1.91122999037037        0.81515540892053
C            1.80999789154597        1.57064923242393        0.61394818394142
N            2.90683336630478        2.19150338827517        1.02948565583681
C            3.94508257552489        1.50239401616953        0.55172749086476
C            3.57963720048915        0.32670083872779       -0.13809084773528
C            4.44361369983093       -0.60600840845505       -0.71813548084358
N            5.16572661778115       -1.36286666511689       -1.19111063030111
C            2.17658820004781        0.33307771562681       -0.15270595257527
C            1.18404114981714       -0.61446565963510       -0.35267052055229
C            1.46955270137737       -1.94194730330995       -0.74151804533984
N            1.67597269823103       -3.01890006763152       -1.07439844363812
H            4.94791324803004        1.85269395763131        0.72003779768542
N           -2.83162110177500       -2.34723730656382        0.90176614397986
H           -2.22595267482775       -3.14692332171831        0.97887999570479
H           -3.82607816015981       -2.46685216450092        0.99526786872516
