28
 energy: -46.681902412268 gnorm: 0.000553952984 xtb: 6.6.1 (8d0f1dd)
N           -4.45978452488046       -1.69816000863602        0.29481909483575
C           -3.49620642306369       -1.07121558453741        0.21032296664666
C           -2.33629660628391       -0.28901979067312        0.10383976602383
C           -2.54674780389491        1.08076792883165       -0.25286257503424
N           -1.74767403130274        2.09677316491552       -0.00869781125375
C           -0.47759503817142        2.06387914250111        0.33331062635524
C            0.48231744771425        1.05785185481925        0.24754728109256
C            1.82859629870544        1.48923654055049        0.32046888436254
C            2.86530679268870        0.63072902960397        0.08715666450203
C            2.58037035370173       -0.77094096162662       -0.22039833057877
C            3.79569800716814       -1.39592451098215       -0.45815423560711
C            4.81543782199306       -0.43705610499276       -0.29538114138111
C            4.26963700615464        0.78673671213986        0.03287442390090
H            4.80500525913827        1.70019070764649        0.21427087681231
H            5.86614633377411       -0.63997407481104       -0.41205165710142
H            3.94386162976131       -2.42979840560683       -0.71275930794158
C            1.26727072361240       -1.22359670328811       -0.17695270037256
C            0.20616962648972       -0.36416345510370        0.07741356181796
C           -1.09939994875413       -0.93037782223159        0.29130537746971
N           -1.15540745413449       -2.22816044398436        0.65552006039970
H           -2.04707983451126       -2.67752422488696        0.78271924170142
H           -0.31626381035046       -2.74095260881987        0.85672958807098
H            1.08754614849363       -2.26945885989861       -0.39066683779036
H            2.01809322060155        2.53743785839157        0.50981142007723
H           -0.11390223433927        3.04805787172806        0.61797908829431
N           -3.73230086356033        1.41340068928769       -0.80315035850563
H           -4.46964993478594        0.73625875149240       -0.89670946332382
H           -3.92595680796483        2.38920291177229       -0.94663942107243
