26
 energy: -52.027780315765 gnorm: 0.000829244890 xtb: 6.6.1 (8d0f1dd)
N           -2.56197618560157       -3.30060923064859       -0.20638322977198
C           -2.30045006548217       -2.19422971266440       -0.04109371570595
C           -2.07054745905553       -0.81657170805802        0.15857271067471
C           -3.18454427462713        0.04651114085421       -0.07527501541071
N           -3.32242741094670        1.29180212922916        0.36602496402358
C           -2.34961828956318        2.06347545423038        0.78252402871231
N           -1.08159489301031        2.00408893979020        0.47925827743423
C           -0.32572241565949        0.97599088113727        0.19632514449630
C            0.99059181683933        1.20253638703075       -0.28033511263663
C            1.38522497516127        2.50374755738843       -0.65703177610046
N            1.69614286734713        3.55641044119702       -0.98804518449464
C            1.89160994890382        0.14693579986427       -0.23015318252751
C            1.42847121367110       -1.15336824820868        0.34529678309154
C            2.56500738921537       -1.90778426085323        0.48786990072278
C            3.61301528322781       -1.10105702381247       -0.04860996804522
N            4.89712959583305       -1.43727518541871       -0.15461836844685
H            5.23039095190334       -2.32855975164619        0.16712525996360
H            5.53455822287664       -0.77347892031529       -0.56099365458378
N            3.19789120914093        0.12151400039976       -0.45799541776146
H            2.66129487065815       -2.90000421289456        0.87662193862659
N            0.14599375957997       -1.40661586992685        0.57543580367247
C           -0.72936692639527       -0.44440460437437        0.40415291458166
H           -2.65844851373179        2.95633116853015        1.31546601133157
N           -4.26126468681325       -0.45448977481543       -0.70682177394885
H           -4.30945120438215       -1.42767739798278       -0.95620593563249
H           -5.07703457189020        0.12839510006683       -0.78239586626430
