24
 energy: -47.797443471841 gnorm: 0.000411287970 xtb: 6.6.1 (8d0f1dd)
N            1.94280642444344        3.24057855459671        0.22717172054138
C            1.81486439050275        2.09923834722052        0.24395468050078
C            1.77539317798707        0.68782253960201        0.25177024008975
C            3.00842740072702        0.02669196176945       -0.08002363855256
N            3.32857807863838       -1.22345271921693        0.19885934792315
C            2.48369616312236       -2.17771800626376        0.53442927900298
N            1.21936142528513       -2.27988267985512        0.26216538381366
C            0.31168233327701       -1.34090549374673        0.06745893694868
C           -0.93829192359710       -1.70633116136830       -0.43740179475983
C           -1.96607218515236       -0.79041389719568       -0.35082071146926
N           -3.27256100932799       -0.87619767524611       -0.56861744510723
C           -3.75977279648592        0.27737716792348       -0.04692165781185
N           -5.05585636486626        0.56336291899608       -0.07813476253646
H           -5.37670264085746        1.41780775442870        0.34171823902612
H           -5.69221946589055       -0.07886382474504       -0.51574819421360
N           -2.86757015005024        1.11125516203881        0.54396471610085
C           -1.70837802869460        0.50982003149303        0.35027326165326
N           -0.49920070673824        0.90552398200359        0.66937276624032
C            0.51450762338913        0.09509495347914        0.41688351940078
H           -1.09870743602027       -2.71961567753929       -0.77067359650116
H            2.94636383911925       -3.06705944526217        0.95046739020770
N            3.98320599610756        0.75962796342419       -0.64550016021880
H            4.87633872514821        0.32248988456322       -0.79530559760037
H            3.88080392723362        1.75335316140017       -0.76505367427831
