28
 energy: -50.694727282475 gnorm: 0.000588708690 xtb: 6.6.1 (8d0f1dd)
N           -4.36338043005922       -2.41466959087721       -0.81456717273617
C           -3.68856725289957       -1.52080010825830       -0.54122159647326
C           -2.93790754021899       -0.40608795765704       -0.20418390343562
C           -1.56371806095914       -0.23630145882705       -0.09091224653712
C           -1.38924980704091        1.17057177370583        0.30715891849387
N           -2.58449857874554        1.80193244339343        0.42086314368978
C           -3.50245185169079        0.89380805226333        0.12554942384241
N           -4.81330811110760        1.16186302218646        0.13062163233496
H           -5.12156909863737        2.08397877859705        0.38222044580603
H           -5.47963195533193        0.43880705747378       -0.07540260850337
C           -0.13804433205486        1.68193299572928        0.48628354239244
C            1.00438096598177        0.87029627671083        0.26343095098867
C            2.22148982400530        1.49562266082931        0.14389827162641
C            3.48621261637658        0.93224686810432       -0.21638991803414
N            3.87329656493663       -0.31511173858263       -0.14579711634276
C            3.08242352767516       -1.35001218179651        0.19557710323108
N            3.76780874153952       -2.44913892843917        0.59529845577940
H            4.76219907509852       -2.46459515159273        0.45528498165434
H            3.26270501310139       -3.31539513704645        0.66007799524268
N            1.78724139338312       -1.49647228533955        0.10405015202502
C            0.81592790210755       -0.58387000855835        0.02834488724270
C           -0.45984939695231       -1.07075120638054       -0.20520111141234
H           -0.57935657820194       -2.12192063721937       -0.41736099980663
N            4.44069540653080        1.80513831656611       -0.61637245664592
H            4.23362195651237        2.77547088292616       -0.76394198293507
H            5.32634864564038        1.43453962899955       -0.91091476973276
H            2.21628898526549        2.57699158964821        0.23226309244294
H           -0.00597329225406        2.72280369634087        0.74096525000244
