26
 energy: -47.230455519664 gnorm: 0.000310250012 xtb: 6.6.1 (8d0f1dd)
N           -2.10394711122906       -3.23394592657690       -0.00268040155255
C           -1.93468994001605       -2.09630565385137       -0.00053526796809
C           -1.83143208410935       -0.68601722434251       -0.00143076456287
C           -3.11604062705764       -0.03245411211161       -0.00254708918525
N           -3.40751765784632        1.25014620792842       -0.00434843588898
C           -2.56506417882378        2.27156281163908       -0.00438315589924
C           -1.19371675664327        2.32545516146860       -0.00208067408751
C           -0.22154617104795        1.29734655432370        0.00011884032681
N            1.01127540501173        1.75758275958379        0.00201265254897
C            2.02944197564810        0.89305405293109        0.00348678511076
C            1.82462552580180       -0.57321847022234        0.00275118324257
N            3.00322350132953       -1.22201729268099        0.00428863610359
C            3.93159172279716       -0.25957570902188        0.00599557652195
N            5.23466444515880       -0.56096970525077        0.00780587078401
H            5.50392462505485       -1.52918425669141        0.00784322270505
H            5.93359060377773        0.15921195556480        0.00913712835696
C            3.38645701373047        1.07277260875669        0.00565511445476
H            3.94799662606181        1.98444505365455        0.00682265802906
C            0.54467957946349       -1.05697727206200        0.00096471569269
C           -0.53834339969647       -0.14920005449260       -0.00020804692832
H            0.36236549511396       -2.12158536908889        0.00060748533622
H           -0.74773078621888        3.31139271392532       -0.00208192985998
H           -3.09023700748394        3.22241338214164       -0.00635966532244
N           -4.21453431226689       -0.82202975222225       -0.00184995693630
H           -4.15699423222596       -1.82480185160858       -0.00182467291694
H           -5.10804365428385       -0.36273307849354       -0.00358512200496
