27
 energy: -51.752532911835 gnorm: 0.000898592156 xtb: 6.6.1 (8d0f1dd)
N            2.25741904973634        2.88740059674774       -0.68832384004727
C            2.04130446056156        1.81306250179439       -0.33972139837853
C            1.90522344943378        0.45048243833348        0.00161001274144
C            3.10629459133972       -0.30659373282905       -0.13194418632527
N            3.34087289703659       -1.50724065452045        0.39551359267225
C            2.42539533046012       -2.35484526592876        0.77886331367822
N            1.17217151178684       -2.43777674317371        0.40497527904277
C            0.33469259187878       -1.49353798909381        0.05804857437907
C           -0.93204461486072       -1.89531408773958       -0.40658232528887
C           -1.98302038866969       -1.01823074294424       -0.33083967990588
N           -3.28200208288303       -1.24000097848325       -0.59005488327352
C           -3.91557966874132       -0.11400752044071       -0.24178274904829
N           -5.23833773363496        0.00430148090015       -0.36821123393316
H           -5.70943214888523        0.85244331785935       -0.10933677297534
H           -5.75996893365408       -0.77212647001556       -0.73678301553772
C           -3.03068273883340        0.90356362120376        0.26838345608540
C           -1.78491327898456        0.34822405184305        0.21068949593364
C           -0.47384813306018        0.81402515483893        0.46508465780049
C           -0.32195395044516        2.14052616778933        0.91072303326401
N           -0.27969559366167        3.20177932061213        1.34836050419653
C            0.60415348325980       -0.04313723950781        0.26461228728585
H           -3.31816054049843        1.87917039605356        0.60559822646704
H           -1.08303302313363       -2.92910281537487       -0.67117501545753
H            2.78758037356324       -3.19392114150471        1.36434105471587
N            4.17032841581055        0.25244865638486       -0.74171930752356
H            5.04017358176438       -0.25060544665831       -0.71389826811709
H            4.15505882961710        1.21474613785505       -1.03373209934807
