30
 energy: -60.513612700500 gnorm: 0.000667023207 xtb: 6.6.1 (8d0f1dd)
N            2.61115941539236        3.68499209282565        0.08868495775771
C            2.47961172040327        2.54389220731161        0.06452819877378
C            2.41282454289825        1.13150879161340        0.01989336977794
C            3.69987110789061        0.51005550701676       -0.13202625161395
N            4.03392923911436       -0.74705494794665        0.10079900629381
C            3.25222260390153       -1.77889936360017        0.29516081548434
C            1.87017076016926       -1.90822222850690        0.16580054474187
C            1.38084290956784       -3.23725082018249        0.25405130143215
N            1.05172497128593       -4.33159507081352        0.33918484955260
C            0.87450549764831       -0.90758348855214        0.01393573397600
N           -0.34479573457826       -1.39653977498465       -0.09926605929475
C           -1.38505312707741       -0.57866118407401       -0.08161636723616
C           -1.24183201629540        0.87408639935349        0.11529116649306
C           -2.53670702023152        1.43244115420029        0.13590295826594
C           -2.87737643183101        2.77409848550804        0.30327080830238
N           -3.18758868814038        3.87329860647621        0.43672238579323
C           -3.45854457978773        0.37975510451472       -0.05135206385835
N           -4.78619643217461        0.48620791359126       -0.09645552616402
H           -5.35366239367128       -0.33442632191288       -0.23407532646029
H           -5.22916049922938        1.38379405356143        0.01296900362802
C           -2.73877306310295       -0.86562295698974       -0.19364189998780
C           -3.37104946588939       -2.09040738879612       -0.40206658104429
N           -3.96823839168076       -3.05692000481880       -0.57709884443627
C            0.02343994893435        1.39880602860625        0.18694910593559
C            1.14241946472978        0.54386166423558        0.08541611872810
H            0.17056953524678        2.46564278736385        0.28289036260609
H            3.79970246595150       -2.68535534053514        0.53735547203789
N            4.74166549776311        1.28877363115338       -0.47953507536627
H            4.64732153652463        2.28149512206437       -0.60964756280551
H            5.65101251546809        0.85991304441721       -0.51425710191313
