29
 energy: -55.195920549569 gnorm: 0.000267499635 xtb: 6.6.1 (8d0f1dd)
N            5.41449443060027        0.67765918909080       -0.13876726982173
C            4.27110791273389        0.55144388405350       -0.08812554409719
C            2.87544642570494        0.41549488931649       -0.01351303112887
C            2.13967730649234        1.61432107175749        0.19157955501219
N            0.86549424510355        1.82089036014556       -0.06171171537947
C           -0.16843009561137        1.01724238489476       -0.13520057737105
C           -1.38904543127351        1.60910829126736       -0.51533801806391
C           -2.54487861847693        0.88403338680485       -0.38051925572351
N           -3.82546741504541        1.24682917714993       -0.54249271610454
C           -4.54716764764001        0.20660335592682       -0.09600624337488
N           -5.88281696587056        0.24380582230435       -0.11406677852658
H           -6.33880822510601        1.05232178927304       -0.49931514077929
H           -6.42541791455304       -0.53048572111631        0.22321952645697
C           -3.75109475658334       -0.88176993119723        0.39575112655601
C           -2.45618149663001       -0.48948488066112        0.18720146939234
N           -1.28957859937151       -1.10088773342295        0.38038877732291
C           -0.17564752336371       -0.43742237066944        0.16630859432617
C            0.98778624657461       -1.23965782683853        0.05867969683340
C            0.71707456842473       -2.62847759794889        0.06884314543376
N            0.57449759294354       -3.76860262501167        0.07906940355275
C            2.34333188316690       -0.88869019535152       -0.13103539402201
N            3.21509957483723       -1.88981135207964       -0.39833081625046
H            4.20176730959819       -1.70069161689679       -0.44325374157411
H            2.89787211490305       -2.84440443128810       -0.39328167117521
H           -4.11745215709136       -1.80106709961889        0.80380766825290
H           -1.39381410768323        2.64781538186687       -0.80630449974630
N            2.81417410427799        2.71971261902899        0.58525413148397
H            3.81849389389797        2.72067402843266        0.63050094029426
H            2.31681977234048        3.59308044638761        0.58848829272258
