26
 energy: -51.253465505355 gnorm: 0.000489730287 xtb: 6.6.1 (8d0f1dd)
N           -4.35845069417735       -2.03579692293521       -1.52839083543488
C           -3.66223606197922       -1.27202221750033       -1.01971140403438
C           -2.86932647370795       -0.32309101762754       -0.39023012463034
C           -1.48312491967582       -0.23428691582215       -0.28469845999782
C           -1.25247838954264        1.00077432174760        0.53636742740298
N           -2.40490874485214        1.55838477387493        0.89913620438077
C           -3.37228407765608        0.81186732984534        0.34220879257851
N           -4.65868262158128        1.11531900034660        0.49785346846604
H           -5.37319613390872        0.54148465388466        0.08358549795417
H           -4.90227415004786        1.92675058368926        1.03951673463429
N           -0.05787974854344        1.45437657940046        0.80571752262681
C            0.98219088101421        0.76339245643863        0.34854032870350
N            2.08610524984581        1.41540813194211        0.11230228356479
C            3.27167692763338        0.91937902458735       -0.26614622864859
N            4.05066398334782        1.79262893821443       -0.92784056896916
H            5.00630883537163        1.54893509784807       -1.11561233086688
H            3.73402260379414        2.74136007927164       -1.01859920948414
N            3.81337065934964       -0.24914302897306        0.03215911897559
C            3.07891360497388       -1.30966558109045        0.37108708181157
N            3.73934675398233       -2.32399413856225        0.96112068286376
H            4.73856042030665       -2.26319174864202        1.03933478459057
H            3.27936652328435       -3.21266101605213        1.04763202598876
N            1.81993729895112       -1.54473207808039        0.03441611644459
C            0.83853458913471       -0.67487050827214       -0.06987127653933
C           -0.41628933429044       -1.07301118495426       -0.53636809990656
H           -0.54594105362557       -2.06205097388224       -0.95075631667581
