25
 energy: -43.498290415885 gnorm: 0.000397897999 xtb: 6.6.1 (8d0f1dd)
N           -1.95542622636019       -3.17619465179278        0.02558371953534
C           -1.72667717124595       -2.04942750818334        0.00511749787012
C           -1.55060975802540       -0.64680384812307       -0.01390157756411
C           -2.77339689538970        0.06267913196200        0.03186531333751
N           -2.98933119847071        1.36312021084973       -0.19620761768074
C           -2.11402310856507        2.31761885357801       -0.25233370037106
C           -0.72614403069060        2.31145845693053       -0.02651865281995
C            0.16051973489607        1.25502045934168        0.06617105078199
C            1.52431837138418        1.59926141820599        0.21261546584493
C            2.50162929066019        0.64755611929494        0.13698756222835
C            2.14277490232477       -0.76879465681561       -0.08411270582342
C            3.35136261091138       -1.43316281223836       -0.12972177221819
C            4.33399989291383       -0.43269608843558        0.05584745884607
N            3.84377752307190        0.79000141170008        0.21374810735594
H            5.39961095748584       -0.58722784214576        0.07720136229613
H            3.52948668711212       -2.48032548866324       -0.27380087119385
C            0.79923552131597       -1.12475333279803       -0.16248695904566
C           -0.20629211627118       -0.17787277095039       -0.06114812225613
H            0.53895308808038       -2.16741012055519       -0.27910886455941
H            1.79285905336118        2.63695978422908        0.34293894286593
H           -0.27947374607592        3.29723179746716        0.02838143868660
H           -2.55672182660684        3.28426353961276       -0.47578828831740
N           -3.92381022375416       -0.61413095036962        0.26885829047410
H           -3.94164769573507       -1.61701618546600        0.32939817225968
H           -4.78397815522703       -0.10285222393497        0.17720538096720
