31
 energy: -53.838034966768 gnorm: 0.000974594335 xtb: 6.6.1 (8d0f1dd)
N            5.00467873485227        1.58784528396601        0.64875619513052
C            4.03639788328788        0.99580692098616        0.43702512070084
C            2.87740651356668        0.25799091609768        0.17652102687775
C            3.08953046775721       -1.07502266337392       -0.35753587506165
N            2.30932846671760       -2.10664526160171       -0.23596764515828
C            1.03992223195077       -2.12097636040550        0.17638155624821
C            0.08347955086200       -1.12462366963607        0.20875192619668
C           -1.26892848064045       -1.56132771774496        0.31844496095035
C           -2.29216176007190       -0.69204937619510        0.13458215399972
C           -2.03135905859739        0.70944295734458       -0.16316850712015
C           -3.28786047121885        1.27848269332770       -0.36490562461231
N           -3.60218696502853        2.58905458636776       -0.61694146616816
H           -4.55229976925746        2.72542478177683       -0.92507551966407
H           -2.91125252012438        3.12317566564108       -1.11934943744517
N           -4.29082756126325        0.36481120899088       -0.19472394749353
C           -3.72973147586359       -0.79528932436689        0.10065875023823
N           -4.45620378831252       -1.93328825349793        0.26620596980840
H           -4.03061865060444       -2.68539345479559        0.78064779124878
H           -5.44623351601133       -1.80192272406250        0.39309325935533
C           -0.71991868263382        1.17531733822729       -0.12504683821026
C            0.33842233995939        0.31364035746765        0.09955204781284
C            1.64233003484378        0.87670287994255        0.36781937119236
N            1.67038754826544        2.15686528688646        0.80877199967242
H            2.55541555086742        2.57895523646293        1.03663139405525
H            0.82611666648261        2.61261664804884        1.10079789246736
H           -0.54127059193605        2.22901010808524       -0.29591879115642
H           -1.44747674716856       -2.61564864233688        0.48573295012134
H            0.70192687470281       -3.13181710172788        0.38575889118612
N            4.26866669455133       -1.29306146074466       -0.98450952766587
H            5.00463962255193       -0.60956528099721       -0.93392307338386
H            4.49019942531319       -2.23912266343266       -1.24220128322266
