28
 energy: -50.678051164067 gnorm: 0.000607487056 xtb: 6.6.1 (8d0f1dd)
N            4.37612097170849        2.51612289302441        0.07749478804853
C            3.67659020710569        1.60090509833903        0.06000832540857
C            2.89718807988407        0.45359213649950        0.03890106436801
C            1.51721538071701        0.28565112596567        0.02757564013143
C            1.31219360158265       -1.18762759091965        0.00718933018373
N            2.48082815727406       -1.84033066599078        0.00498445260279
C            3.42220800987551       -0.89010510775935        0.02323203341669
N            4.72211296087191       -1.19448650539998        0.02631194323755
H            4.99475267636050       -2.16132351177537        0.01328003887237
H            5.41358518274730       -0.46530645659270        0.04009353701479
N            0.11735724539429       -1.71306193449191       -0.00447911698530
C           -0.93365126094683       -0.85420556491577        0.00065311177354
C           -2.15278073093895       -1.50673132593324       -0.00790535230819
C           -3.47680756656519       -1.03640161810006       -0.00328352293554
N           -4.44774342454178       -1.99696589495508       -0.05269815546062
H           -5.40395469220464       -1.74393158115691        0.12263763801978
H           -4.18958547587943       -2.95488701654991        0.10440373413749
C           -3.89493322644978        0.28861574527573       -0.00259080303405
C           -3.12998458063056        1.45951780612868        0.00112547268556
N           -3.81886666909506        2.64000377912662        0.04609780301634
H           -3.31712665339570        3.49701452645680       -0.10540293582487
H           -4.80418744776676        2.64546195931846       -0.14933003964126
C           -1.73820991739944        1.55744501420261        0.01480536380232
C           -0.73014829335836        0.59592446505797        0.01778920380875
N            0.50366772834825        1.12900183681329        0.03149171373826
H           -1.33836286588592        2.56547629769533        0.02530098728678
H           -4.96931845244800        0.43840517869361       -0.00520373475674
H           -2.04091777216327       -2.58530266325693       -0.01953318090663
