29
 energy: -50.396460872993 gnorm: 0.000780926014 xtb: 6.6.1 (8d0f1dd)
N            4.90682684715349        1.41495727273974       -0.45162639085807
C            3.89721611168929        0.87452534291467       -0.31573530132160
C            2.68148813722847        0.20023934204653       -0.13966509503689
C            2.78710069956977       -1.17779166249962        0.27313918093358
N            1.92027677897381       -2.13255261820714        0.06415736942851
C            0.65270501277329       -2.01349278450380       -0.30492970342408
C           -0.22442728087990       -0.94219950130631       -0.23411899495281
C           -1.60738174152308       -1.26862402355607       -0.30732135145112
C           -2.55308543235762       -0.33220215157114       -0.04447281037893
C           -2.16978322481808        1.03314683951198        0.29886586729813
C           -3.35711322560876        1.69091527901321        0.56204657254471
N           -4.43480538931131        0.87674280315608        0.40747441104493
C           -3.99054462222876       -0.31685508070643        0.04952448372847
N           -4.82890171147426       -1.34837051163072       -0.25380369590085
H           -4.46315283613933       -2.28215390427244       -0.16986875259677
H           -5.78543862888648       -1.21700115300137        0.03381354716689
H           -3.50500776534743        2.71367115586803        0.85611962902962
C           -0.82350649511607        1.39170612859582        0.23969305941473
C            0.15287862142372        0.45805436577586       -0.05392680468852
C            1.49858551220885        0.92562629616776       -0.30883485196639
N            1.62880157299359        2.20633408248209       -0.71057671294830
H            2.54507093402548        2.59206184909017       -0.86863882487946
H            0.82039543158530        2.77427322090496       -0.88556539495817
H           -0.56152895805467        2.41789955566595        0.46092496335817
H           -1.87474215336388       -2.29603962266416       -0.51859401919672
H            0.22628103241564       -2.97411028192170       -0.58156499880180
N            3.94446696068140       -1.56007288329412        0.85282470806296
H            4.72942522416336       -0.93336747067857        0.89879980881966
H            4.07711106682519       -2.53986550731850        1.03427675582965
