28
 energy: -51.483808087136 gnorm: 0.000792052541 xtb: 6.6.1 (8d0f1dd)
N            2.99719855297368        3.04057766126427        0.07886795846251
C            2.67026383385172        1.93841173627956        0.05088393777738
C            2.38469671934195        0.55343602409050        0.01903871724175
C            3.58015052552459       -0.25436652173178       -0.04446406758172
N            3.70952691312126       -1.55868670360413        0.04002844003505
C            2.74689166412774       -2.46495378520952        0.10884476415163
C            1.37852884514083       -2.34732797315459        0.05936164817752
C            0.54387561404320       -1.20732924810644        0.00890796996410
C           -0.82257285441098       -1.44540415742138       -0.03125197603813
C           -1.73767166729620       -0.40200407821856       -0.02063648096013
C           -1.25342249390716        0.98076346274940        0.04644554018194
N           -2.27669479654943        1.86085975811306        0.06282722992174
C           -3.38572978514052        1.13224925027704        0.01114694225170
N           -4.60430208526624        1.67625349033054        0.01142999989267
H           -4.68927864068329        2.67683437832526        0.05183579349348
H           -5.42373952821852        1.09547243312665       -0.02603196481150
C           -3.12295561747484       -0.29875004035088       -0.04335876044111
C           -4.09896383308853       -1.28163998106083       -0.10119370745624
N           -4.94210210638288       -2.06553202172233       -0.14567543780114
C            0.09236545497155        1.23299691032776        0.07910489262187
C            1.03433895081004        0.18216090186405        0.04126063098367
H            0.43232763394629        2.25615701171887        0.11946234817286
H           -1.18186566626809       -2.46437086521758       -0.06090898304334
H            0.84012667048719       -3.28722393735304        0.07950267272519
H            3.14762003774736       -3.47042854264155        0.19464855033832
N            4.75991468788198        0.38910091834124       -0.19601938116182
H            5.59192703264836       -0.17464853486923       -0.17898928406292
H            4.82956285226896        1.39149536105367       -0.18731388903534
