23
 energy: -48.855002244949 gnorm: 0.000975948716 xtb: 6.6.1 (8d0f1dd)
N            4.00658057599951        2.52197061420332       -0.93288350601827
C            3.25708986787940        1.70708838032866       -0.62533725752314
C            2.42683303596259        0.65344636382702       -0.25187687303940
C            1.05868886495763        0.58940118514719       -0.08031486180406
C            0.79001183133476       -0.83630599048763        0.30009476519571
N            1.92687314961678       -1.52520262644324        0.40780360962196
C            2.91191484731251       -0.67434770514851        0.09557189397724
N            4.18412675199904       -1.04022613940014        0.09935712674686
H            4.90626347166732       -0.38774495875994       -0.15960990693083
H            4.41979576534322       -1.98331012633310        0.36266168279377
C           -0.51695733387449       -1.29974077662734        0.31150948545160
C           -0.84952511111853       -2.65804612338311        0.49484599338769
N           -1.14298361954719       -3.75312167307767        0.66208930288848
C           -1.49772841454312       -0.34311158070276       -0.05767827363154
N           -2.62780419422111       -0.63582405054195       -0.61026528266862
C           -3.66960939047072        0.11314799267043       -0.88669467598310
N           -4.13061320244050        1.09418076283666       -0.14295900056979
C           -3.32554121807209        1.72526503803396        0.69653367574737
N           -2.03220747463516        1.87865956334478        0.61467184050512
C           -1.10837925780498        1.12072495356675        0.07656686230600
N            0.11711433859965        1.52553735336889       -0.12460409694228
H           -3.80993211691495        2.29870727242509        1.47977030258823
H           -4.29918096573058       -0.23619539044727       -1.69615808779798
