32
 energy: -63.946975574401 gnorm: 0.000727568075 xtb: 6.6.1 (8d0f1dd)
N           -5.52616935759646       -0.13639812998448        0.43554332047117
C           -4.38791269915764       -0.06054911628809        0.29067141926752
C           -2.99019008268948        0.03842997824723        0.11986733544898
C           -2.46876467047742        1.35625423537822        0.17879309175583
C           -1.12714885296249        1.71769380880255       -0.04026742335887
C           -0.88238758406806        3.11044272536917       -0.14737335431909
N           -0.78079401572650        4.25182020149642       -0.22729599108584
C            0.06376394782977        0.95415571228353       -0.09429411594939
N            1.13239362868522        1.71066086601862       -0.26751783667991
C            2.34400572503405        1.16770030074312       -0.20434121237469
C            2.55010402986765       -0.26090150370569        0.14052938535762
N            3.84364000541173       -0.54118973342909        0.27559078864167
C            4.48538666582081        0.61600220920944        0.00791535554158
N            5.81559723292706        0.66631846500727        0.03149939639174
H            6.30743919203108        1.52383818911263       -0.14621239552537
H            6.32217661795395       -0.17657744842127        0.24446602605875
C            3.60125266396442        1.70910064070185       -0.27213908442691
H            3.88517050546538        2.71752112705112       -0.48930991191720
C            1.43039757753244       -1.06690761176172        0.28350334283077
C            1.59568359006597       -2.38686262196311        0.75755474908552
N            1.76688613936400       -3.40469630453985        1.25893707656726
C            0.14417754449524       -0.50768842890694        0.04354366478701
C           -0.92226725611993       -1.38504358640481       -0.19863081216808
C           -0.56690419110887       -2.69884011078254       -0.59871149280742
N           -0.38547996683968       -3.73567336251598       -1.05953842990566
C           -2.33226944152887       -1.17316996326654       -0.16801665269037
N           -3.11251565394547       -2.25478736268275       -0.38620008142165
H           -2.70065180048067       -3.15950804776755       -0.54221471523632
H           -4.11436301237457       -2.17510136166821       -0.34242508993630
N           -3.34726760128760        2.35442980709354        0.42510819664412
H           -3.03095051433005        3.30955388670670        0.42141626451964
H           -4.32971994995542        2.16207799886777        0.52011800563391
