28
 energy: -52.259568252264 gnorm: 0.000742370480 xtb: 6.6.1 (8d0f1dd)
N           -3.25295394627138       -2.91080421556690        0.69464221508125
C           -2.65701802605248       -1.95344175531082        0.47149284656886
C           -2.01900830502426       -0.73075460847599        0.18005569111239
C           -2.92509129265765        0.28956697856982       -0.36494690132171
N           -2.82040431439086        1.57051772746335       -0.21586147603614
C           -1.78150989597970        2.24704428665602        0.27829165195534
C           -0.45988393496756        1.88639631179784        0.31991646692051
C            0.41629478680420        2.88197526988215        0.81229279185451
N            1.05937264456241        3.69644495639174        1.30149143537284
C            0.12137870072039        0.58316617590982        0.04461656154940
C            1.46653753857254        0.48191884910215       -0.26289358720446
C            2.22508716562724        1.59565680137109       -0.68428866471014
N            2.87558292978754        2.43275403718874       -1.12300491364914
C            2.12919823084668       -0.77527001319175       -0.21423289265261
C            1.39158198278215       -1.93551935459328        0.27544959320945
C            0.07277464095094       -1.85426605385996        0.54839390326559
C           -0.64526055115612       -0.62796739523304        0.28892995396639
H           -0.49135052092234       -2.71881905485449        0.86879391365982
C            2.33215083110564       -3.03772199831117        0.31606882916244
C            3.52394559553999       -2.57279754572572       -0.12552815229947
C            3.41388979905367       -1.17043015598847       -0.46175658732202
H            4.21514257157179       -0.55923557860854       -0.83296829176423
H            4.43343118486177       -3.13710728146104       -0.22237686630869
H            2.09044961912902       -4.03093784125558        0.64145036510916
H           -2.04138961549033        3.25302696298258        0.58904179206523
N           -3.99925457666255       -0.16080718989697       -1.04087599818792
H           -4.66627339689152        0.51897435831306       -1.36432733882463
H           -4.23885858114846       -1.13720878769015       -1.05756952207095
