30
 energy: -59.722514671952 gnorm: 0.000615792457 xtb: 6.6.1 (8d0f1dd)
N           -4.79173802270911       -2.48842190234633        0.97563565976270
C           -4.04072408827724       -1.66693174918686        0.68265441802787
C           -3.19873367083425       -0.62407743296673        0.31892424944857
C           -1.81299530955781       -0.57738015124704        0.18970576909588
C           -1.52030121163098        0.81495680217543       -0.22384938963342
N           -2.63578543239579        1.53049702043378       -0.36136430924910
C           -3.64238723475554        0.70200011363101       -0.02970789842873
N           -4.90770415295641        1.11184442381863       -0.04333972997554
H           -5.10594973345612        2.06179619070096       -0.30794767165803
H           -5.65149540836477        0.48170164667256        0.20406940147185
C           -0.19308804417810        1.18737941087284       -0.37756203436167
C            0.08673005324690        2.48420085803910       -0.85921276741161
N            0.23321252387931        3.50851034255447       -1.35540321639415
C            0.82038861783395        0.22791323043474       -0.09705905999552
C            2.13143310774955        0.66174035712213        0.11735372497804
C            2.37025457789535        2.04179894674602        0.31025359254023
N            2.69427834003218        3.10965749968347        0.58738343053055
C            3.32108622698324       -0.13439541516803        0.27908567262043
N            3.50915583829429       -1.38750643567202       -0.06936343315630
C            2.60830926779102       -2.32285924528554       -0.32998565833603
N            3.13073932627504       -3.48284740618334       -0.78119034902062
H            4.12499340639852       -3.54896010334009       -0.90814831164751
H            2.54588660959198       -4.27710523435500       -0.96509589898460
C            1.22480624810218       -2.27451657911683       -0.08438114989954
C            0.38812050517666       -1.17544811813552        0.06157570293973
N           -0.88922825745004       -1.51000905321217        0.26786163327835
H            0.70041644737406       -3.22098952307915       -0.06139124914659
N            4.42543748371353        0.47070381271935        0.75719559156373
H            4.43966122056552        1.45508980768616        0.96245662281524
H            5.27470854866439       -0.06513257199667        0.79238005982559
