27
 energy: -52.544179288735 gnorm: 0.000405391050 xtb: 6.6.1 (8d0f1dd)
N            3.89494259053560        3.16926368114225        0.00196163835514
C            3.23961359789634        2.22422379742534        0.00206426200282
C            2.48208358826246        1.05404237746503        0.00196741201615
C            1.08371704468836        0.93615457776958        0.00152062184818
C            0.75858213203916       -0.50302310772124        0.00181298274033
N           -0.48018259082521       -0.95842129316303        0.00151400193793
C           -1.49080706913157       -0.10072738675991        0.00103787041049
C           -2.75958441853703       -0.72700849636233        0.00003038537771
C           -2.72540148743979       -2.14816162417434       -0.00007516590260
N           -2.77696060956560       -3.29249461742631       -0.00119690086488
C           -4.03847763874095       -0.16645747550380       -0.00082396171786
C           -4.37377265675044        1.17324397371292       -0.00033795605911
C           -3.49819027094404        2.26767719084181        0.00097812166279
N           -2.19565108798109        2.33297096586644        0.00124423852104
C           -1.28085188052089        1.36792676497637        0.00110172020233
C            0.04219389986509        1.83643039898205        0.00117121347169
H            0.20549304626680        2.90382213619087        0.00114057629119
H           -3.96199362145821        3.25084680171215        0.00164483390490
H           -5.42892268797320        1.41189516201853       -0.00096258309621
H           -4.85495886327756       -0.87891026546096       -0.00178961321893
C            1.95809973674037       -1.21418431584006        0.00229393889680
C            2.16401752994761       -2.59439741386494        0.00244266168630
N            2.41897876765366       -3.71501548883880        0.00327337235388
C            3.02686012346303       -0.25969812409792        0.00243791704373
N            4.32401991728337       -0.56708833629269        0.00291051826701
H            4.61342106913518       -1.53162370653110        0.00323659500656
H            5.01936095996857        0.16098774043406        0.00296952356265
