30
 energy: -54.908634731729 gnorm: 0.000957475265 xtb: 6.6.1 (8d0f1dd)
N           -5.34088051863055       -0.82188868176581       -0.52693891133960
C           -4.21676265927742       -0.64424255628850       -0.34978447736095
C           -2.84680693373533       -0.44504370397953       -0.11780678818911
C           -2.09056398909479       -1.60019643866024        0.26766206806490
N           -0.80904491072621       -1.78094396467050        0.13186572023698
C            0.21241682767911       -0.96188964997164       -0.04471744563234
N            1.33091363527800       -1.55798021525957       -0.38900215459342
C            2.47709989711225       -0.88671091835969       -0.29268993872405
C            2.55059019477731        0.49383677267198        0.27784866890241
C            3.88882822271735        0.84625925701563        0.34548358895363
C            4.63193392249089       -0.22999224270143       -0.17252148740727
N            5.96765978909006       -0.27324622596521       -0.29071086371358
H            6.41892140197320       -1.09146284446793       -0.65920377246029
H            6.53196787748348        0.49634150617144        0.02355878774228
C            3.75537754327552       -1.28955229430048       -0.57084811240427
H            4.06397086402148       -2.22581226599126       -0.99158038170020
H            4.29423647671273        1.77057871128573        0.71072222404944
C            1.36303860158092        1.15713460487134        0.51210820820242
C            0.15256937516196        0.50971895420678        0.23919002033334
C           -1.02279150546659        1.26641863866805        0.11096711932576
C           -0.88006098452506        2.66652272565613        0.24608362278080
N           -0.82132493353658        3.80912943166774        0.36150335994896
C           -2.34880136175858        0.85999281749269       -0.23083317920989
N           -3.20777022134591        1.82817014416675       -0.63825324745834
H           -4.17919798468526        1.60526174649087       -0.77333550752882
H           -2.92790707582035        2.79370676673796       -0.62251974167809
H            1.36424235195992        2.19588218128548        0.81618476817123
N           -2.77463163306035       -2.66559574527634        0.75284268605582
H           -2.26061631834562       -3.52351268219657        0.85888055280641
H           -3.77758971720561       -2.69940636493383        0.68567864912559
