31
 energy: -65.008301168705 gnorm: 0.000920193586 xtb: 6.6.1 (8d0f1dd)
N           -5.42133620836129       -1.12771480054708       -0.79966781357399
C           -4.32757630379656       -0.90267583427333       -0.52886974359664
C           -2.97921094791443       -0.62186035410604       -0.21333241832615
C           -2.14147406490260       -1.76285789122952       -0.05711835912779
C           -0.75078228185384       -1.73776891319978        0.14200166584036
C           -0.14950114775269       -2.99549912532786        0.40006235250308
N            0.27012882482425       -4.03933145806567        0.62614211690614
C            0.19475108280750       -0.68215658247657        0.04113455806732
N            1.44490766759936       -1.10146507735081        0.02917813443674
C            2.46468176978980       -0.27873546150916        0.04723625349577
C            2.27715402510980        1.18641639980963        0.04239660934501
N            3.46372558548174        1.80183413699594       -0.04943353044743
C            4.38225002937090        0.85812055004557       -0.12838003670033
C            3.83763909714176       -0.45778080743956       -0.14338890471168
C            4.54739238446247       -1.65492593758887       -0.25417455234721
N            5.15217894354416       -2.62518571888133       -0.35918956807947
H            5.42645709670425        1.11036423400307       -0.16808305858774
C            0.98489567450253        1.65490169612979       -0.06319585979712
C            0.77609006076871        3.00276716217834       -0.44009049164543
N            0.64217862649794        4.06993225266633       -0.83559242278485
C           -0.11888259018144        0.74615954883753        0.03055689062553
C           -1.38685882619164        1.28303040330576        0.27369469360449
C           -1.43234264582607        2.57421105228322        0.85898012933807
N           -1.55730424629326        3.55504526963286        1.44293177327238
C           -2.68562881048768        0.72917712808521        0.02995566261422
N           -3.71079283305141        1.60340116772530        0.02904039758603
H           -4.65435490831880        1.28318396870067       -0.11555894859186
H           -3.55036060489462        2.58467088748587        0.18712781953420
N           -2.74155476700470       -2.96958383894843       -0.10060677988933
H           -3.73360294218657       -3.04723695800028       -0.24889513242479
H           -2.19058189418965       -3.80843051703883       -0.02015400383772
