26
 energy: -48.033100111321 gnorm: 0.000539776282 xtb: 6.6.1 (8d0f1dd)
N           -4.12362606040750       -2.65799147182066        0.00210486547505
C           -3.39648232723743       -1.76551285701509        0.00245455894925
C           -2.55354607670748       -0.66205219265140        0.00264964536884
C           -1.16098255094996       -0.60236190651661        0.00207375239331
C           -0.84847354743828        0.83292892851974        0.00273900813787
N           -1.95799500692402        1.57740764577678        0.00361525547427
C           -2.98375173210380        0.71611146303540        0.00360193633457
N           -4.24954077696288        1.13241877218251        0.00437910481384
H           -5.00808199716030        0.47275499520866        0.00431788456399
H           -4.43196259497600        2.12116303331488        0.00501484435264
C            0.47727940130036        1.24059891033958        0.00230470667112
C            0.79605981110377        2.61749173170069        0.00221195457778
N            1.02811286359732        3.73984191729592        0.00449637900154
C            1.53226931671110        0.29115525225870        0.00138805190002
N            2.72561411908147        0.85010712275498        0.00109274627624
C            3.92999840309784        0.32585200848585        0.00025530930413
C            4.34783619269779       -0.99807351450813       -0.00055497916822
C            3.53470319411059       -2.13073336855092       -0.00075257336265
C            2.15790493688226       -2.18280294083859       -0.00020785817145
C            1.19501937547646       -1.15322597877284        0.00074019048381
C           -0.14082727871668       -1.54008022094659        0.00107500853496
H           -0.39050219774225       -2.59255593042554        0.00054059405487
H            1.73212649435147       -3.18053194133624       -0.00056025470901
H            4.04611848231784       -3.08504092598416       -0.00145565208601
H            5.41679634981601       -1.16460117466544       -0.00110021562531
H            4.70557344228231        1.08692043085847        0.00025572375451
