27
 energy: -51.741081934463 gnorm: 0.000476553614 xtb: 6.6.1 (8d0f1dd)
N           -1.12433232724974       -3.48743963151480        0.51586906044639
C           -1.12007392208465       -2.36129349328132        0.28165516638069
C           -1.26929984285770       -0.96816927064092        0.11533395386515
C           -2.61697900547549       -0.53128458059306        0.18535694691340
N           -3.10585623935075        0.65848337742083       -0.15993140601594
C           -2.48267472936768        1.80405674099682       -0.24972009598346
N           -3.21738322863081        2.83054205817244       -0.72013319190750
H           -2.82662704906451        3.75037938058605       -0.81026554956064
H           -4.15921260342665        2.65354551297578       -1.02216357779455
C           -1.15537148558529        2.10496799424978        0.18579295184955
C           -0.08163284359088        1.26188406731807        0.29460020493660
N            1.06461978536173        1.92338816898455        0.62067003491375
C            2.19510974814214        1.32782070898065        0.43951105983015
C            2.32054235108551       -0.05194763713121       -0.11697472536268
C            3.66768903490358       -0.26273776777676       -0.23755056655967
C            4.27458429110601        0.93312946411597        0.24970401521550
N            3.42665881675920        1.85857732915581        0.64692668035476
H            5.33386365019486        1.11641533810569        0.31210202600920
H            4.17813013291819       -1.13119641935786       -0.60397789920413
C            1.13472803221728       -0.78662746914088       -0.29519172342639
C            1.25650520160780       -2.09341083915607       -0.81188703495762
N            1.46017453582827       -3.09963228555173       -1.32647472780952
C           -0.09374951555659       -0.18033009645982       -0.00265684665075
H           -0.92896908473495        3.14586654169428        0.37720773913849
N           -3.57327077351660       -1.41642783612933        0.53474739944461
H           -4.53166350580005       -1.12159449304721        0.47587645907123
H           -3.35109112923340       -2.38269350407428        0.70275223136368
