25
 energy: -48.305740400578 gnorm: 0.000917403012 xtb: 6.6.1 (8d0f1dd)
N           -4.02615281645127       -2.02211901556615        0.00581229720387
C           -3.24179228477879       -1.18105756850682        0.00280595102154
C           -2.37509703519571       -0.09201771656189        0.00362858137001
C           -0.99386928787906       -0.01659241583715        0.00267592071305
C           -0.68738111806869        1.43778847450348        0.00326205174401
N           -1.80672772773280        2.16407541768288        0.00474759076868
C           -2.81794841268711        1.28945526482601        0.00501667580476
N           -4.08890604265611        1.67933456116931        0.00628050894143
H           -4.29507399436349        2.66369310610721        0.00711162015388
H           -4.83075976194116        0.99969885977310        0.00647678004542
N            0.52909360216400        1.91691932135698        0.00242164997269
C            1.56925745856873        1.07157395298359        0.00097257036813
C            2.80123146685749        1.72700270289244       -0.00088117082450
C            4.09626664572749        1.21445111469160       -0.00293440449567
C            4.48011957189044       -0.10804260298667       -0.00274063403905
C            3.63338899540824       -1.23495215235306       -0.00053579822702
N            2.34153455613649       -1.33650332678023        0.00064867941284
C            1.39200077756874       -0.39584392634062        0.00093244962847
C            0.08148576850537       -0.90680011079237        0.00168371093744
C           -0.13466343613161       -2.30411135598421        0.00263835146760
N           -0.34960036089820       -3.42994781646830       -0.00005077044341
H            4.12679269120807       -2.20374640219016       -0.00003470753209
H            5.54124661214258       -0.31893399204099       -0.00432354220499
H            4.89006872126352        1.95099386531615       -0.00463420838025
H            2.69985273774294        2.80508658250588       -0.00100014740681
