29
 energy: -55.207302201267 gnorm: 0.000718950531 xtb: 6.6.1 (8d0f1dd)
N           -1.62146433276115       -3.41133193857548        0.50730289163803
C           -1.57322136162111       -2.28531233556314        0.27589376803568
C           -1.64994192365458       -0.89040239752351        0.09094039983714
C           -2.95305292217944       -0.34923297440779        0.29368990856289
N           -3.37414065285107        0.86408289729500       -0.03715721095171
C           -2.60026313781586        1.89201385653522       -0.32888497794188
N           -1.34830334562335        2.11590679630303        0.06764181143426
C           -0.37433710492083        1.26388198489405        0.23815946861637
C            0.85156072153971        1.80836902038802        0.68946772096293
C            2.01148212864723        1.11779547442745        0.48060437344796
N            3.28211559441254        1.50983829290342        0.70888324378389
C            4.04757937029466        0.52627245482042        0.23609413517640
N            5.38106382725661        0.58816203351103        0.29494702154880
H            5.80963077610579        1.38933239597185        0.72446923817521
H            5.94890026851030       -0.16730571831220       -0.04339090149850
C            3.29247272614470       -0.56667450041022       -0.33275635366924
C            1.98508946997585       -0.20935469546163       -0.17535199715588
C            0.74286549968891       -0.83940968618105       -0.42588613643342
C            0.77210450471630       -2.12293233502038       -1.00071830558412
N            0.87793223437733       -3.12612201619518       -1.55156428854223
C           -0.44120136520665       -0.17704606576793       -0.11103376518861
H            3.70055000334529       -1.45667141821343       -0.76865890827483
H            0.85697098424412        2.82243478925183        1.05404921845788
N           -3.18852410534591        2.91779991737118       -0.97580879329840
H           -4.17827662429195        2.88262211845846       -1.14037894154799
H           -2.69308463815283        3.78779614278547       -1.05270374660022
N           -3.91743850838750       -1.15193814060454        0.79102467516208
H           -4.85557565532830       -0.79364241450212        0.81907481975297
H           -3.74784599681641       -2.13159966687638        0.94096906519488
