27
 energy: -55.765634648217 gnorm: 0.000638749646 xtb: 6.6.1 (8d0f1dd)
N           -3.39679815836199       -3.10079817643122        1.62057551327735
C           -2.90824242727154       -2.18211639770922        1.13047442073895
C           -2.39931468545670       -1.03199825576282        0.52968553173614
C           -1.06901229682284       -0.67064104427320        0.31397780703105
C           -1.06649818545070        0.67112551405341       -0.34773090539655
C           -2.39502736527695        1.03107389634588       -0.57674315745355
C           -2.89905831612992        2.17973999181123       -1.18451042825179
N           -3.38376294530630        3.09963837456408       -1.67592118912548
C           -3.21813836320283       -0.00050511968460       -0.02698910289236
N           -4.54849745085316       -0.00110726738192       -0.03325321586666
H           -5.05570005734387       -0.76531395286430        0.38325287731734
H           -5.05241346793559        0.76266203087743       -0.45452038252452
N            0.04947113161103        1.34678928724803       -0.51302058107017
C            1.17252170564648        0.74356628307747       -0.12725967596501
N            2.21527011574310        1.47869689944552        0.14763917975145
C            3.44556334014916        1.07075055151780        0.46087188245350
N            4.16017348998580        1.92813843569812        1.20591411618985
H            5.13910612884417        1.75313519394055        1.34552211991527
H            3.76453888444812        2.82652519823558        1.42012496290876
N            4.08590354140275        0.00079004409776        0.00536273460318
C            3.45029167656156       -1.06960689551525       -0.45575920975828
N            4.17206105741061       -1.92688497371187       -1.19401742955695
H            5.15214314309529       -1.75144322928492       -1.32471923654018
H            3.77888517986659       -2.82556337044081       -1.41146297712390
N            2.21761294024017       -1.47787894422965       -0.15298171494391
C            1.17178895193275       -0.74312851296048        0.11063694812446
N            0.04573886647494       -1.34649722596244        0.48759386272247
