30
 energy: -59.719925304097 gnorm: 0.000940662468 xtb: 6.6.1 (8d0f1dd)
N            5.89702494102513        0.72841572639058       -0.11945992695206
C            4.75531189334953        0.58412577262242       -0.10286905643546
C            3.36425395410627        0.41140091520217       -0.08931333240441
C            2.83311198473414       -0.83411843010969       -0.52081820879726
N            1.64638081162300       -1.30405337871993       -0.18441457249269
C            0.51982239519874       -0.69741212258565        0.07507138327988
C            0.31068513185560        0.77739370299719       -0.12237996278262
N            1.25786959523915        1.62766662354781        0.17405374345289
C            2.55022791339114        1.46473866735558        0.40315196583044
N            3.12795206948705        2.47364758207301        1.08629258419121
H            4.12775298826332        2.52407146749048        1.18011000023563
H            2.56231997503623        3.27575106962520        1.30380745868741
N           -0.87649271792866        1.26695086836531       -0.44114545680659
C           -1.93139597990314        0.50210929329458       -0.25877084910095
C           -1.86128306368361       -0.85561842017537        0.36663497720051
C           -3.14907267606896       -1.32618330345504        0.51810142452557
C           -4.02870256732920       -0.34941617034815        0.00275492452154
N           -5.35883054145813       -0.42790503226230       -0.04727509995168
H           -5.88907529603441        0.32569170822837       -0.45412957111682
H           -5.84105260251427       -1.23295298740316        0.31424561262674
C           -3.27560801659999        0.77030912616425       -0.49736163528330
C           -3.86102455150166        1.89232726245317       -1.07759633761278
N           -4.42054154974235        2.78007024555513       -1.54921307780365
H           -3.44067376606167       -2.27582656989829        0.92462433891874
C           -0.60046503792035       -1.44313488372180        0.50245964840906
C           -0.45277850934382       -2.78633505772191        0.89704699594332
N           -0.34191679430512       -3.87746156946347        1.23630670019615
N            3.62166978576839       -1.68947770247029       -1.20376011854339
H            3.28564210039226       -2.62597629228754       -1.34909287696663
H            4.60076793552681       -1.49213623764270       -1.32191967556648
