24
 energy: -48.581411366738 gnorm: 0.000953639676 xtb: 6.6.1 (8d0f1dd)
N           -3.92526265303231       -1.96431360126973       -0.71110782620735
C           -3.16483347616217       -1.13834102674629       -0.46373093830404
C           -2.33608967218506       -0.06260025032584       -0.15895040995809
C           -2.83844580462947        1.27451157599308        0.15017929129815
N           -1.86461407863701        2.14127310057402        0.41256618433653
C           -0.70993712753993        1.46295878297337        0.29446648672308
C           -0.96388411509667        0.04282598222972       -0.06482738786019
C            0.09510217295550       -0.88152792754813       -0.12776658488675
C           -0.14283663984649       -2.25712215013652       -0.32154937763951
N           -0.33443295033844       -3.37393036886417       -0.49798457145529
C            1.38158981104948       -0.40071983563804        0.11028079183915
N            2.35052636190328       -1.15811384710221        0.58297588960236
C            3.62509925732687       -0.92319456100922        0.68951744719673
N            4.37439626933060       -0.14385676662707       -0.08283539579366
C            3.84679519134719        0.86465578702655       -0.72874391662376
N            2.74262221624009        1.52218812062691       -0.43349829777203
C            1.62050773084239        1.08903557405256        0.06190308362719
C            0.56624468835312        1.96272045549850        0.37309052632252
H            0.75023320875093        3.01310187339175        0.52679769106849
H            4.45984760803834        1.32132780803887       -1.49929743799456
H            4.16113765221108       -1.55621305606452        1.38785983559062
N           -4.12336505807196        1.60645510919771        0.16881442369299
H           -4.83100601750001        0.91870537539268       -0.03007729552924
H           -4.38224413000887        2.55289835913576        0.39170554362646
