28
 energy: -56.262139275687 gnorm: 0.000559227705 xtb: 6.6.1 (8d0f1dd)
N           -5.57775367563180       -0.87265620423423        0.32888296750484
C           -4.44631229309347       -0.69033066948292        0.22835409489431
C           -3.06411281444790       -0.47738168611912        0.11979335030174
C           -2.55486925947872        0.78650908658734        0.46657039057877
N           -1.37563039379819        1.26021368280821        0.05307410596797
C           -0.25217785090799        0.66465237576699       -0.15458876260503
C            0.00307097682659       -0.80177365903242        0.01884744031832
N           -0.95062703446591       -1.66869568498875       -0.28918171793784
C           -2.24855196963516       -1.54082003339752       -0.40040214135378
N           -2.87001021768796       -2.56899560860212       -1.01046437223963
H           -2.31046455618408       -3.36427892010191       -1.26697307093642
H           -3.87306986839085       -2.63478861011519       -1.02879786084825
N            1.19967804516358       -1.25686502840156        0.27081910112833
C            2.24303893839300       -0.44272181472521        0.15634522365500
C            2.12668480459232        0.92791349565784       -0.41108291498635
C            3.44245387664806        1.47074290497664       -0.48766818580719
C            4.30055806697548        0.54847127559500        0.02885714383365
C            3.57719287092016       -0.63441447639852        0.45875075025302
C            4.16267987462078       -1.74468414493274        1.06577652881804
N            4.67238354539341       -2.64488389851565        1.56709193931251
H            5.36631859865528        0.65194189815445        0.12793140973664
H            3.68630013451469        2.43646717173802       -0.88725384740235
C            0.87710395569902        1.47073712272116       -0.55392654113843
C            0.66668963870015        2.82690108130857       -0.88644850605459
N            0.49733969367600        3.92255142127543       -1.17845200649917
N           -3.31899452120801        1.67866522859169        1.12234022952202
H           -2.98274905393017        2.62151490195231        1.21828793364125
H           -4.27956497671759        1.46952740961617        1.33481341214181
