27
 energy: -50.970663399655 gnorm: 0.000485933701 xtb: 6.6.1 (8d0f1dd)
N            4.30129281895578        2.30778860172256       -1.14075172484805
C            3.62164917406778        1.45965716524772       -0.75930635654233
C            2.87805772186308        0.38998239638633       -0.28221555728095
C            1.50401950944223        0.22136446087203       -0.14047721981459
C            1.34375228338222       -1.14838092057602        0.41286522738787
N            2.53673724852925       -1.73054710891114        0.61659422119876
C            3.44988432003595       -0.83801989254386        0.21852709520358
N            4.75832527661882       -1.09415598613981        0.28138972658616
H            5.06534013256087       -1.98040588614358        0.64188863509263
H            5.42412028591068       -0.41257213994354       -0.03893477393351
C            0.07857915393503       -1.66388285610681        0.52781730083098
C           -1.01031831532021       -0.86396081621853        0.13022071460002
N           -2.17612486650740       -1.45747994239913        0.01897704955759
C           -3.36188912627533       -0.93837991770847       -0.26322521135045
N           -4.25407177059316       -1.80319072770808       -0.79156387580143
H           -5.21822783216232       -1.52824954081014       -0.84257783350872
H           -4.00151237577132       -2.77293049815038       -0.85638734255159
N           -3.84255828344821        0.26342772238889        0.03208012804419
C           -3.11208875346823        1.35129948742892        0.22009358083659
N           -3.80990394264426        2.42691502442441        0.64942354933009
H           -3.37538479481677        3.32787895710316        0.72410691362555
H           -4.80280474199793        2.33738675381992        0.76808109451098
C           -1.73639641332523        1.53181401580231       -0.04656904704493
C           -0.74255211121732        0.56905070864240       -0.16493163146117
N            0.48933973599152        1.02838520416482       -0.37463416777150
H           -1.37309685236238        2.55205538694981       -0.05577694459776
H           -0.10021356048379       -2.68748001269319        0.81634131200346
