29
 energy: -55.202025449679 gnorm: 0.000903312746 xtb: 6.6.1 (8d0f1dd)
N           -4.34012338562673       -2.85056810971333        0.22032914293648
C           -3.66592427363728       -1.92002151878952        0.14816919271884
C           -2.92190770322778       -0.75130188568328        0.05986921280639
C           -1.54204876309733       -0.55088037901004        0.03071981147263
C           -1.38002354422614        0.91921454731854       -0.07172478466056
N           -2.55968964716869        1.54130175459638       -0.10864918389041
C           -3.48548456757465        0.56911353263358       -0.03397062410971
N           -4.78798342977838        0.85041301061744       -0.04692041741758
H           -5.46900587094781        0.11327181213939        0.01392326834711
H           -5.07774579174102        1.81060843444955       -0.11458533139862
C           -0.09321740475884        1.42727901922724       -0.08348334669539
C            0.16715375620184        2.81240370464525       -0.14250772303592
N            0.38813695765354        3.93696835224876       -0.19272482435682
C            1.00559803955526        0.52386171394161       -0.00449566638138
N            2.17907260435897        1.11050392865545        0.03316370063767
C            3.41193819838562        0.62227534854797        0.08544699657834
N            4.33698680690080        1.60199740945692        0.23491541491485
H            4.00262427419911        2.54989566177021        0.20363575060629
H            5.31981014217866        1.41932447786879        0.15403035490677
C            3.85739175113116       -0.70281072392377       -0.00450561173992
C            3.08311007054083       -1.85963690458187       -0.06644308809238
N            3.73358400406668       -3.04806609717441       -0.19226387473127
H            3.21809313296828       -3.90637746054581       -0.11940528686207
H            4.73282903714358       -3.08843675928602       -0.10582433196111
C            1.68041975883626       -1.92092989992051       -0.02035056578902
C            0.71328084981178       -0.92398531956233        0.02916196087820
N           -0.53757737995170       -1.39992253101442        0.06907282964611
H            1.25050966912407       -2.91566710388220       -0.04356176253310
H            4.93181746278006       -0.83975526872964       -0.02355502229455
