29
 energy: -60.779499732388 gnorm: 0.000501373181 xtb: 6.6.1 (8d0f1dd)
N           -5.83862118357876       -0.72628196151089       -0.13941604675147
C           -4.69581837501432       -0.59603327027679       -0.11199855138335
C           -3.29804481364425       -0.44362543343183       -0.10546757497039
C           -2.53707449093679       -1.64598633271918       -0.27412019871198
N           -1.26978863132275       -1.81669256399990        0.00414873601745
C           -0.23939707026089       -1.01225139763214        0.03328912004787
N            0.92724513015437       -1.50979092871412        0.35815031185587
C            2.04284915078823       -0.81610542216267        0.35986427312830
C            2.00174726194035        0.58090070316206       -0.15003170081177
N            0.85370251388858        1.09280524416084       -0.43085026369626
C           -0.28613931872838        0.46595469921363       -0.21704031854196
C           -1.42266089160645        1.22454481734344        0.10329799417628
C           -1.14217123885801        2.56453264196444        0.45886560839222
N           -0.94178503831567        3.65773110648689        0.74647994869392
C           -2.79608406445797        0.84082917420993        0.16553301939586
N           -3.67745999135086        1.81028852814313        0.47530970282529
H           -4.66315726958734        1.60832061843032        0.50319315987696
H           -3.36499330169508        2.75488368380808        0.62932430117344
C            3.34728475714078        0.98117840516981       -0.39229119417975
C            3.74666124864621        2.24247403688884       -0.84983184279721
N            4.08258729655844        3.26536100719909       -1.24646150282550
C            4.16570476585291       -0.06911991486093       -0.01100120835626
C            3.38212551182538       -1.19041090941491        0.39104902595045
C            3.87981868816235       -2.45189775528601        0.73231908370032
N            4.30285304319544       -3.47986769675830        1.01840755113072
H            5.24027373483489       -0.06477912049207       -0.04485283363279
N           -3.19185598964312       -2.76198235588774       -0.63691066773510
H           -2.67789334851907       -3.62658654836647       -0.65281060195674
H           -4.19311664806771       -2.77139955806884       -0.73458511821345
