31
 energy: -59.436800661384 gnorm: 0.000708496890 xtb: 6.6.1 (8d0f1dd)
N            4.81496685110501        2.55344835251542        0.59498390460998
C            4.05690392249943        1.70638024657132        0.41273748490139
C            3.20425203153387        0.63435861395054        0.18695681906990
C            1.81212550041851        0.57880663845740        0.11983044886828
N            0.89265220348132        1.51748087697673        0.14363097189483
C           -0.39623687177984        1.17866933045138        0.01422870421821
C           -1.22278539956049        2.29498893706132       -0.06240583600625
C           -2.60193942193725        2.43391465412852       -0.24388385159053
C           -3.55271286919070        1.41345998754353       -0.18673107917680
C           -3.38873012450452        0.05851948479317        0.07684675665346
N           -4.52425336565397       -0.67180829429949        0.21637427399744
H           -4.48055680807696       -1.65378327996707        0.42711561089294
H           -5.41820633876619       -0.21679390948859        0.22220570265588
C           -2.15325295059328       -0.65293578317588        0.15596492063880
C           -2.31538740207052       -1.99604942398859        0.57764860849364
N           -2.55601402690452       -3.01251025326888        1.05796819932615
C           -0.83434235877839       -0.22089288114955       -0.05590269259666
C            0.17080424062751       -1.21052953259735       -0.24412428675918
C           -0.12862465954068       -2.52987402166445       -0.64747721238034
N           -0.30181230740778       -3.57389136538322       -1.09170163042564
C            1.50488255963888       -0.84303676821577       -0.13986615566827
N            2.61369644030673       -1.57399487395445       -0.24596019509137
C            3.63279502959954       -0.72094018161148       -0.03323495275117
N            4.89749875387514       -1.13859121635406       -0.04579557817519
H            5.65027150352480       -0.49082532658195        0.11113565100702
H            5.08400012274046       -2.11239712241862       -0.21278949275780
H           -4.58246013387157        1.73434159385028       -0.29862502733306
N           -3.06306659501513        3.70181632069672       -0.42004762600621
H           -4.02713103305369        3.86533194404008       -0.64603524285284
H           -2.41067346703030        4.45257226027356       -0.55551301780929
H           -0.65884435741534        3.21914650990828       -0.01681456434743
