30
 energy: -59.735602223779 gnorm: 0.000683603640 xtb: 6.6.1 (8d0f1dd)
N           -1.48510499746777       -3.99471868944064       -0.03399220965814
C           -1.60129786516979       -2.85044603601800       -0.02052183056872
C           -1.83332962494308       -1.46075101164638       -0.00400222191665
C           -3.18792145561208       -1.08713113642974       -0.28004481792394
N           -3.77117541668351        0.06504471711923       -0.00092745249861
C           -3.15469245890631        1.17455226641583        0.37388552308463
N           -1.91082759494438        1.55654656448827        0.09934581816089
C           -0.83087954183093        0.84638686051985       -0.07569960454243
C            0.33629216526234        1.58662841859199       -0.41736833470798
C            0.19546459829591        2.94544742836344       -0.76471927373738
N            0.06741616803658        4.04685133619667       -1.05755026158515
C            1.58214950936730        1.00077735696644       -0.27514200272779
C            1.68387639534338       -0.39800206248872        0.18663410947572
C            3.05178852641752       -0.63961331194370        0.27423286943512
C            3.74374251672915       -1.78111040758764        0.65429424856706
N            4.36901593788395       -2.69777175209831        0.96187174190974
C            3.67641715314570        0.60129250721669       -0.13421751268992
N            4.98792444754497        0.81365092086745       -0.19889130113427
H            5.63763888451931        0.08302658449981        0.03737058411072
H            5.31965830923251        1.71594981437445       -0.49477229041131
N            2.78840239057245        1.55107608619749       -0.45182656886237
C            0.54553681698019       -1.16784439570575        0.36306877500542
C           -0.71277867223871       -0.61318654743900        0.15516210808146
H            0.63789102766727       -2.21741814731895        0.60378100676817
N           -3.91025323140890        2.10316617854065        0.98343912475017
H           -3.52552960954462        3.02288828278889        1.11154115300458
H           -4.89882531611525        1.94893061354198        1.07082285045344
N           -4.00968120990211       -2.01854816761488       -0.80163202044198
H           -3.69788317087403       -2.96109743876807       -0.95880830399045
H           -4.97868764885715       -1.78073380568921       -0.91873385001011
