26
 energy: -52.038788224405 gnorm: 0.000967442319 xtb: 6.6.1 (8d0f1dd)
N           -4.41328163950994       -2.33018953744471       -1.00968017502887
C           -3.63902506151859       -1.54376180144031       -0.68507026113822
C           -2.77145192049142       -0.53283213140604       -0.28932905628780
C           -1.39590759677805       -0.53498034947293       -0.10465163337092
C           -1.06485657124364        0.85939815589674        0.28799302755480
N           -2.16501837219757        1.61257166057034        0.37895048235599
C           -3.18704411465619        0.81261916000542        0.05171686203707
N           -4.44353811151803        1.24674613240998        0.04192590673635
H           -4.63012277915816        2.19979799287063        0.30416117538292
H           -5.19480531413945        0.63184496146338       -0.22167215264578
C            0.26885706427889        1.21211444903967        0.37288495045711
C            0.68445174361652        2.54270077560753        0.59158766676898
N            1.03312247930105        3.61881946550030        0.77767199271751
C            1.24877460390039        0.21258141242548        0.09967478181153
N            2.47701975564861        0.62054307499148       -0.06237557119572
C            3.58993113641581       -0.08027388544042       -0.23737139708213
N            4.58704104205426        0.54767393228408       -0.87849029723299
H            5.50270672086615        0.13353908376744       -0.87079710280718
H            4.46823065546957        1.51308564540021       -1.13280268623933
N            3.88212015878427       -1.26404238853877        0.30106614572971
C            3.00137770364235       -2.19098359815948        0.59469870914463
C            1.64316171104072       -2.25347113883340        0.30739577401037
C            0.77953361199201       -1.19255163811943       -0.00960062354068
N           -0.49429332629678       -1.49643156902807       -0.18576336878869
H            1.14074526838484       -3.19809355654988        0.47040848780352
H            3.44406414762230       -3.05561375030002        1.07918999254754
