23
 energy: -44.049471554093 gnorm: 0.000858737002 xtb: 6.6.1 (8d0f1dd)
N            1.81779231552700        3.07966913658994       -0.68426065212398
C            1.63562128712119        1.97449413262052       -0.42499142393972
C            1.49640901166234        0.61347891038062       -0.09276244483454
C            2.72316058322346       -0.09034226880984        0.14946892855223
N            2.95660998716634       -1.38778453177122        0.10905729315592
C            2.08195414056344       -2.35033222642001       -0.13641443499077
C            0.70971395773577       -2.35303184726095       -0.16633240850391
C           -0.19459868302404       -1.28603800540738        0.04392696693092
N           -1.47207981925969       -1.59523981573503        0.09397125994421
C           -2.42674438798340       -0.72376172858841       -0.02926499060178
C           -2.04527315247872        0.73413978161959       -0.13330703702900
N           -3.13138050508606        1.46443363905567       -0.04881410250504
C           -4.17503925774141        0.62647603542581        0.08502180580140
C           -3.80243455694768       -0.70775372345215        0.19738428909158
H           -4.43726836343146       -1.55965606854966        0.33708447019097
H           -5.17008163795550        1.03089445884426        0.12503438643383
N           -0.78954762900107        1.04488587942316       -0.02269965953418
C            0.17622058818882        0.13538603746740        0.01374527815544
H            0.22596643466542       -3.29333837205328       -0.39413861778557
H            2.57107440428286       -3.30415239400958       -0.31061061494985
N            3.81644489716859        0.65546179060688        0.39645414226026
H            4.69471682135526        0.17810129480857        0.50348706367651
H            3.78056388094995        1.66022398251614        0.38670969150534
