27
 energy: -51.745419710127 gnorm: 0.000710496832 xtb: 6.6.1 (8d0f1dd)
N            1.05360713059088        3.44483784782572        0.09194458879763
C            1.03603542781850        2.30119009060418       -0.01393496304896
C            1.19425111214508        0.89446483139261       -0.02197608757692
C            2.53694286377115        0.47234354070890        0.38949097508583
N            3.11150852234998       -0.65458942598306        0.09338101243508
C            2.50076743365590       -1.74700743328689       -0.40244970183422
N            1.27320810221358       -2.12936313377864       -0.17397693208779
C            0.19031344334272       -1.39309513883475        0.06279936627010
C           -0.95057585655203       -2.04637566262485        0.49688083893816
C           -2.18521478987569       -1.40575821449749        0.46394146465988
C           -2.29598132393323       -0.05761136000858       -0.15311396921092
N           -3.58462985932872        0.32602089971895       -0.22523498952205
C           -4.28079021074326       -0.67626113526966        0.29819238254709
C           -3.49113267980454       -1.77002699464356        0.72241264162089
H           -3.84939045030748       -2.67853860192330        1.16360316814724
H           -5.35265002616527       -0.60101191293003        0.36354383676508
C           -1.16755187832419        0.62729147648883       -0.55116604542183
C           -1.28035601768905        1.84813011617818       -1.24506327014752
N           -1.39031271226951        2.78914942217311       -1.89276769017873
C            0.11564753437334        0.06563792333682       -0.23821467842569
H           -0.87207087283206       -3.08973039587798        0.76048950189741
N            3.30815003457385       -2.60662887875966       -1.05642987736171
H            2.95587834136821       -3.52290563093456       -1.26969452985855
H            4.29923891840739       -2.44432749148142       -1.03899636960314
N            3.27388551575015        1.35646629766413        1.08413983739008
H            4.22191149218421        1.10599983298054        1.30638955269724
H            2.95750180887804        2.29948802096304        1.23420058792596
