30
 energy: -55.711893987267 gnorm: 0.000771091722 xtb: 6.6.1 (8d0f1dd)
N           -5.23512513198846       -1.52992327824696       -0.70599351706798
C           -4.17772150717930       -1.15767002963270       -0.44333718536588
C           -2.88300472100666       -0.72449797009981       -0.11536816469362
C           -1.94960972089256       -1.76397308749307        0.30500340050252
N           -0.66424670527469       -1.73036948670306        0.28508141962465
C            0.21959425721804       -0.72173256081927        0.10756890741814
C            1.52370975151588       -1.11686944966659       -0.11169512959273
C            2.56487950894272       -0.18614062946286       -0.12142326917679
C            2.28061418572676        1.20774860451226        0.18481305144678
C            3.54540535021836        1.91664218095377        0.18998049850042
C            4.52155349458554        1.02724084799395       -0.09048191623267
C            3.93929693836337       -0.29484176559354       -0.28762438153085
C            4.65979428520951       -1.44762701324784       -0.57959982205905
N            5.25901957236762       -2.39988265458281       -0.82392226985852
H            5.57624731034384        1.22154265669447       -0.16501061443231
H            3.65357765602671        2.96649063180852        0.38393467359678
C            1.01022260312337        1.61990682163441        0.39802079442953
C           -0.08846727976511        0.70064479777927        0.25091408680127
C           -1.35619643128719        1.25668193343241        0.16246447986620
C           -1.46766855657218        2.65877384733033        0.33096036148028
N           -1.63201124791393        3.78673716786948        0.47660990059603
C           -2.61865319452580        0.63280749088359       -0.18896174078526
N           -3.60598917643925        1.46503921960728       -0.59051548605964
H           -4.51674976203519        1.09245967956396       -0.80076984860632
H           -3.47533057454098        2.46191226427127       -0.59818712533182
H            0.79466400746355        2.65497362047892        0.62214305276137
H            1.72649502009828       -2.16830710207232       -0.24099078273590
N           -2.50688348258325       -2.92805579609121        0.71970555497379
H           -3.48454834210722       -3.11242662292180        0.57679442811964
H           -1.88292991029182       -3.69810809397992        0.88801973591189
