30
 energy: -60.496217485719 gnorm: 0.000795134508 xtb: 6.6.1 (8d0f1dd)
N            5.31701210869598        0.77422232387139        0.44423081577413
C            4.19362222513975        0.60101547700961        0.27191023454231
C            2.82040424438233        0.40466673237789        0.03437772024997
C            2.10534387236196        1.53321715700690       -0.51999638609193
N            0.84179885048309        1.76710852899338       -0.35682724310872
C           -0.19481785729602        0.98818812136735       -0.07340790684687
C           -1.37958957344276        1.61600960961455        0.31075645086402
C           -1.36987485828294        2.99879441960381        0.58000079085168
N           -1.37418728788488        4.12096909669480        0.81930966975765
C           -2.59152399206180        0.89598756091424        0.33323351097867
C           -2.60919389779406       -0.48467206013439       -0.19467764439830
N           -3.88387437593070       -0.95165118427134       -0.24948980417577
C           -4.63675291681089        0.02803546146138        0.20064213214803
C           -3.90789547058730        1.20420054378829        0.56079715494583
H           -4.32072930205579        2.12023392023971        0.93255674623563
H           -5.70274446648141       -0.09982024127605        0.26910217095982
C           -1.44711687551923       -1.12540564355712       -0.54463006210941
C           -1.49365437017224       -2.36970529156091       -1.20814147596141
N           -1.55232754866617       -3.32309221659634       -1.84277777324477
C           -0.18899975792839       -0.47841373913748       -0.25545070348050
C            0.92152849152823       -1.24797669086814        0.01817196898175
C            0.74689016161923       -2.65344679865362        0.14091457231059
N            0.71615052832423       -3.78192403510324        0.34544168075380
C            2.27110511613206       -0.82933655814595        0.36395689609032
N            3.05420093510955       -1.74169575363175        0.97301683908280
H            4.01765104068039       -1.52154244983951        1.16575125472606
H            2.72654368128693       -2.67722525142881        1.14725173187871
N            2.81834697944327        2.48473088395462       -1.15247031023729
H            3.82403349698473        2.46999364176565       -1.14227085035803
H            2.34210762054185        3.33538844154207       -1.40198846941914
