26
 energy: -48.016359894603 gnorm: 0.000827041040 xtb: 6.6.1 (8d0f1dd)
N           -2.87519256464648       -2.96845771897263       -0.00055532232948
C           -2.40353179707652       -1.92068071547691        0.00030683245163
C           -1.92709284457601       -0.58575275931735        0.00021262412758
C           -2.99319074957442        0.37074591556101        0.00067775779580
N           -2.92760435539325        1.69499813320044        0.00019691370643
C           -1.85939977796077        2.44883160991833       -0.00003812320528
C           -0.50208185014351        2.13072817491100        0.00039945297085
C            0.15255270565648        0.90037604121024        0.00047886440686
C            1.56555321749625        0.93893270163994        0.00079021138574
C            2.25576069310570        2.17138552241019        0.00143767656116
N            2.82361457722169        3.16819862236940        0.00155492712739
C            2.31741337435250       -0.23482462940197        0.00050870960309
C            1.61941614276313       -1.54298797917968       -0.00012423667396
C            2.65328566767475       -2.48240829283270       -0.00032035945758
C            3.82763586625533       -1.73850300458246        0.00018084638700
N            3.63036755544987       -0.39871865598695        0.00069149609904
H            4.83466198598561       -2.11723868799750        0.00022207101579
H            2.56609666840271       -3.55021168658624       -0.00078165149137
C            0.24481146864457       -1.58745713427549       -0.00033009664230
C           -0.53027359207196       -0.41715562397102        0.00005275913400
H           -0.25305642757035       -2.54695263466197       -0.00073071189927
H            0.15557398352366        2.99220964583138        0.00057553331936
H           -2.10024274726300        3.50734178217756       -0.00050021954197
N           -4.26549298977300       -0.08428212000684        0.00150565602612
H           -4.99724362352156        0.60464550982319        0.00157905521305
H           -4.49033256496139       -1.06338276740298        0.00171131711032
