29
 energy: -56.001275726610 gnorm: 0.000930272671 xtb: 6.6.1 (8d0f1dd)
N           -2.17535502280791       -3.57020891691220        0.00171131044910
C           -2.13921522920525       -2.42106088624628        0.00045197904607
C           -2.21261434051753       -1.00840291167439        0.00099394404470
C           -3.55215004759988       -0.53447847175448        0.00278980923579
N           -4.00527879493295        0.72174760442084        0.00362310611046
C           -3.30427835646809        1.81903083423464        0.00257538825200
C           -1.92584188528753        2.04495404559413        0.00026626364684
C           -0.85452584663637        1.15616307471621       -0.00132773482580
C            0.44101861360002        1.73910581995448       -0.00338834339342
C            0.60708563362294        3.14099839432320       -0.00303533778785
N            0.74783879857887        4.27993853326588       -0.00520154384735
C            1.58143254687358        0.94648909776383       -0.00498154476089
C            1.44050146556752       -0.51544848472098       -0.00415405236140
C            2.74800150695200       -0.99679465036339       -0.00530177297879
C            3.22665100857808       -2.30077109041768       -0.00356078750638
N            3.67457044987049       -3.36090320776037       -0.00872343807332
C            3.57687382041116        0.18440876547412       -0.00745639999565
N            4.90730419372435        0.19606030037709       -0.00927000955617
H            5.38486731805880        1.08123615218968       -0.01041420426201
H            5.42729813228811       -0.66487938377026       -0.00949970420338
N            2.86151196503631        1.32153621951061       -0.00703822004440
C            0.18237692186959       -1.09084630390703       -0.00211211744210
C           -0.97330002684101       -0.31183018429538       -0.00079631932986
H            0.10144298083333       -2.16814983461697       -0.00154353829461
H           -1.64806077060424        3.09219806422774       -0.00031688784967
H           -3.92755881652569        2.70861247012815        0.00365292880732
N           -4.56013948290120       -1.43248288239521        0.00402432801878
H           -5.49745459374319       -1.06986473823043        0.00534966649705
H           -4.39805835719432       -2.42422678161562        0.00366576610496
