27
 energy: -52.542429072853 gnorm: 0.000885050481 xtb: 6.6.1 (8d0f1dd)
N           -3.52242078876282       -2.80437985257103       -0.28181159737250
C           -2.97559909422457       -1.79744344595997       -0.20210077161162
C           -2.41268913199944       -0.50270614117749       -0.09152532102582
C           -3.41854583281564        0.52441630385594        0.13832094275618
N           -3.31688972265832        1.80292018826699       -0.10731082345376
C           -2.22253505272349        2.50388781172959       -0.36736886026029
C           -0.89733451082895        2.15815519945515       -0.25446086121486
C           -0.29377084793782        0.88838512402914       -0.07882864702368
C            1.10031776665383        0.85783276057619        0.05314447760356
C            1.83945818025532        2.05543607581769        0.17492202701212
N            2.45223080059697        3.01902745064957        0.28321475974010
C            1.80061792124078       -0.36035795485833        0.04379062781783
C            1.05572471262692       -1.60202402663592       -0.16259140961845
N            1.91020975879700       -2.67486178933488       -0.19038023821796
C            3.10475422368422       -2.18631057386790       -0.01902625100808
C            3.12874910221714       -0.74735028972008        0.13621629459421
C            4.27263749829640        0.02464345992201        0.33196896871705
N            5.23690091805142        0.62838134839782        0.49239527719167
H            3.97143127246810       -2.82323477346345       -0.00123236283205
C           -0.29616200233812       -1.59719767168934       -0.28513884734338
C           -1.03198851744423       -0.37730736724283       -0.16848990426670
H           -0.82492004798801       -2.52841911902167       -0.41873228783867
H           -0.19581586411004        2.97831928077828       -0.34823500801420
H           -2.44645257753363        3.53208069797427       -0.62928162973223
N           -4.62396577497408        0.12266843155936        0.58285749140418
H           -4.85355408010722       -0.84800894244869        0.70876828999273
H           -5.34142415924171        0.82189076937948        0.67331768020437
