25
 energy: -47.518201254907 gnorm: 0.000465468358 xtb: 6.6.1 (8d0f1dd)
N           -1.83805558342678       -3.21020137412107        0.00317505212349
C           -1.74241207353518       -2.06579635337746        0.00198202632038
C           -1.77371137248581       -0.64863103991593        0.00066002783284
C           -3.08114907292377       -0.07340816902596       -0.00220769020988
N           -3.42986722742981        1.20429514301331       -0.00256010300276
C           -2.63502630548163        2.25229171242125       -0.00171245552088
C           -1.25659604204486        2.37555438018963       -0.00092470628260
C           -0.24801714643384        1.40055019400281        0.00062740039304
C            1.07867713657427        1.84168726293380        0.00126036147565
C            2.08844868502777        0.90479236472372        0.00358442034272
C            1.71956405168499       -0.53908710370530        0.00554496058386
N            2.83493559875236       -1.25120971427332        0.00805231900726
C            3.80860676908749       -0.30933728875523        0.00757870677279
N            5.09431487115069       -0.64462732994755        0.00963852475142
H            5.34284474202323       -1.61779353544965        0.01166837993574
H            5.79181442022473        0.07795208547716        0.00933883693710
N            3.41432103151982        0.99006481029349        0.00495841223102
N            0.47480046692177       -0.96131559749834        0.00472534109798
C           -0.50198570903180       -0.05329284582598        0.00211458651012
H            1.29958582057796        2.89969313567260        0.00013433327048
H           -0.89131373262168        3.39628477973681       -0.00129293071081
H           -3.19642575952224        3.18282142768640       -0.00204211857831
N           -4.13632666797081       -0.91361355814854       -0.00464626342264
H           -4.01456372100372       -1.91141948598782       -0.00383107702132
H           -5.05571991723318       -0.50810657501884       -0.00593820713670
