25
 energy: -48.295695456572 gnorm: 0.000523326472 xtb: 6.6.1 (8d0f1dd)
N           -1.20989175239313       -3.28518472390985        0.00210923068123
C           -1.37188455421207       -2.14897288962375       -0.00002192246457
C           -1.70096638984171       -0.77035181976916        0.00020454502413
C           -3.08543770244111       -0.48259858761829        0.00057110806357
N           -3.69335909035776        0.71265080061069       -0.00206574514883
C           -3.14936729001200        1.89042705349103       -0.00281179190036
C           -1.80689576877737        2.30636131252691       -0.00055534309425
C           -0.64053555353551        1.56249911542299        0.00019031444858
C            0.58775813699213        2.27712616768196        0.00155903119900
C            1.75779644645363        1.58118584119279        0.00200776141079
C            1.70986715800415        0.10283062064190        0.00023709687193
N            0.57059952440309       -0.57505453612837       -0.00076109737445
C           -0.57051508129839        0.08744993003643       -0.00037908766395
C            3.04028959265105       -0.29579683023226       -0.00048530417202
C            3.58315805819730       -1.58030584484081       -0.00197766215146
N            4.06337515862313       -2.62391678543281       -0.00386622302003
C            3.78735258594343        0.93044639514687        0.00140847700026
N            3.04685466032589        2.01475926394202        0.00276888753557
H            4.86145339606633        1.00059274720285        0.00183127088171
H            0.57756915188708        3.35766911919119        0.00186799861723
H           -1.67013565429863        3.38177995356365        0.00019187252666
H           -3.88732770606003        2.68822733413760       -0.00523743023797
N           -3.96122506021237       -1.50590408915663        0.00307597489732
H           -3.65276047883078       -2.46309340526666        0.00427702436237
H           -4.94158168157634       -1.28394717781029        0.00237781020753
