30
 energy: -60.487757606149 gnorm: 0.000856802009 xtb: 6.6.1 (8d0f1dd)
N            5.16672846280352        0.48834286101883        0.80787647625542
C            4.06126229621046        0.32725686393792        0.53735496147182
C            2.69973736040810        0.12997598573838        0.22120740576509
C            2.29780806365109       -1.22821898176733        0.07526021831013
C            0.98527277170714       -1.67932513491647       -0.13333580922737
C            0.84927230088585       -3.06639642042454       -0.38447133317942
N            0.80271608909345       -4.19368962979949       -0.59795649120509
C           -0.26656155366967       -1.00985097728973       -0.04027790183693
N           -1.29976645563947       -1.82397640975549       -0.04778246515535
C           -2.54394056100380       -1.40158990528729       -0.06164619259598
C           -2.86107286661363        0.04961003088753       -0.03542015661766
N           -4.17853341253222        0.21698806418462        0.06203906966343
C           -4.71583457293314       -0.99933127655801        0.11809501725941
C           -3.76246867996121       -2.03387030096662        0.12121198883797
H           -3.94531491885507       -3.08761369548889        0.17296294214853
H           -5.78502121701152       -1.10840095460380        0.15348074579964
C           -1.79864224386170        0.92299094079495        0.08481416704206
C           -2.04815700368612        2.25878896875600        0.47599611920735
N           -2.26912234424991        3.30836479520617        0.88033182185018
C           -0.45589847275458        0.44211173542656       -0.01682110633595
C            0.55527046349166        1.37529713246169       -0.27438116525566
C            0.15428276675537        2.59743703629405       -0.86999551230292
N           -0.07039438755919        3.55522922364516       -1.46254032444150
C            1.96392141106966        1.29755894287160       -0.03658803922080
N            2.63396079687238        2.46794567676169       -0.05784890552475
H            3.63018218104210        2.48831423589869        0.08366313175133
H            2.14810387656928        3.33416313916181       -0.22134677829838
N            3.27414858078544       -2.15969158185201        0.13542295052112
H            3.04333856820336       -3.13606447091538        0.05750466413833
H            4.23263848288384       -1.89256958312033        0.28190533737538
