26
 energy: -47.215550676216 gnorm: 0.000487995871 xtb: 6.6.1 (8d0f1dd)
N           -1.05254151357084       -3.61178250764050        0.39193376000537
C           -1.06494495260890       -2.47350399502323        0.22910214897769
C           -1.17442506127051       -1.08475865165254        0.01591432075315
C           -2.49007974649486       -0.59511577676920       -0.14219252589613
N           -2.93718418599035        0.65764063456606       -0.08639969871135
C           -2.24632563334400        1.76742152412964        0.06094646180473
N           -3.01341201421867        2.86336697005857        0.27137403695564
H           -2.61320840394309        3.78306359140216        0.28552198601343
H           -4.01148010852742        2.75531911322693        0.23748829316789
C           -0.84635783547742        1.98233541266046        0.00070717913558
C            0.18264198148154        1.07881199694812       -0.14950951937327
N            1.40962300875959        1.63833007704740       -0.26461505978297
C            2.46355175360650        0.91361511935681       -0.06719959611879
C            2.34217655942954       -0.56162662950442        0.16903261265460
N            1.13835105690456       -1.12388839832796        0.13879475362527
C            0.06311411785878       -0.38563840775087       -0.02503894590300
C            3.60764131637192       -1.07561569979669        0.14853113440497
C            4.51602206152108        0.01584615022980       -0.02100104437787
C            3.84507884680591        1.20079178295223       -0.18457892252648
H            4.26641552950018        2.17825656263597       -0.31616925663130
H            5.58585839255690       -0.10021896057471       -0.05001395182271
H            3.88012620750325       -2.11011675899838        0.22472899779764
H           -0.52462838464256        3.01233092242220        0.09854972292368
N           -3.48284037755152       -1.49551843521928       -0.33023015343563
H           -4.42904874846944       -1.15954187012410       -0.32864910063902
H           -3.29550114299031       -2.48228189295420       -0.29104335340093
