26
 energy: -52.037045189135 gnorm: 0.000722682396 xtb: 6.6.1 (8d0f1dd)
N           -2.23976690316646       -2.93348649220503        0.42676184805611
C           -1.99571317500838       -1.84351400894566        0.15826299340324
C           -1.85683766190166       -0.45396185718796       -0.06377408297562
C           -3.07285818698393        0.28889533168428        0.18522335631061
N           -3.36158083282058        1.47920536090137       -0.30097593249377
C           -2.49029924825316        2.34333674105370       -0.77835855546299
N           -1.22826770424250        2.45667798595529       -0.49619151413889
C           -0.35336082874254        1.53998132868670       -0.12222945768631
C            0.88738979965383        1.97755261092325        0.33572223888160
C            1.95028721550614        1.09631120088339        0.33240029769738
N            3.23668550985709        1.27227084953955        0.61104014102302
C            3.80496133737170        0.09074507728637        0.26788882019918
N            5.10642499847565       -0.12858747163749        0.40143749854604
H            5.48246176723328       -1.01814304810444        0.12367005801423
H            5.69602725353743        0.60291161422069        0.75728050071516
N            2.97425677589111       -0.86174032939920       -0.23110128287190
C            1.78553455092110       -0.28207595656380       -0.20384854825420
C            0.51984315198157       -0.76677946183529       -0.52886445578735
C            0.38826613271178       -2.07185768234753       -1.04273792976589
N            0.32576399259789       -3.10597916856861       -1.53646199768659
C           -0.59040326856684        0.07831775742674       -0.31551139766871
H            1.02649459061016        3.02249267764600        0.55988390958538
H           -2.91984379429691        3.15711541446970       -1.35319593302099
N           -4.05593783036915       -0.30746156257653        0.88073980949352
H           -3.98983075854919       -1.27247802463858        1.15810684820537
H           -4.93307239344701        0.17874799553209        0.96072959918287
