30
 energy: -54.921688951194 gnorm: 0.000617428091 xtb: 6.6.1 (8d0f1dd)
N            5.89541299152348        0.44292283488216       -0.01434323196851
C            4.75181165425258        0.30570938326773       -0.00982626945573
C            3.36132309710631        0.13666247569781       -0.00458080355135
C            2.55097226136019        1.25652026703236        0.30626864406434
N            1.26057682191414        1.39411167650174        0.05521755312090
C            0.30943930755667        0.50190120818796       -0.10604835335116
C           -0.97112710052618        0.98012278199614       -0.40279540752670
C           -2.06642585716645        0.17053603944685       -0.19481992232861
C           -1.89895499510064       -1.20274372803976        0.33268364817057
C           -3.16014805992678       -1.74685548338173        0.51336202055231
C           -4.11411917114347       -0.78392136384903        0.12476875861168
N           -5.44596503592400       -0.92598193749462        0.15012609396074
H           -6.03561299006398       -0.16739558361605       -0.14834309977329
H           -5.86620564109720       -1.78418417941183        0.46000173617319
C           -3.44305906488729        0.40276173610033       -0.31388610342371
C           -4.09175433837112        1.54680459019670       -0.75869501821266
N           -4.67959788295990        2.46977868471707       -1.12136703012978
H           -3.38799688285092       -2.72959580478180        0.87969564074565
C           -0.62332091866000       -1.72991214055711        0.47800821736028
C            0.48968329641298       -0.96587647491105        0.15001001625568
N            1.63174033361260       -1.60244125473597       -0.04804787824281
C            2.84049998326856       -1.15279891648929       -0.30843733853911
N            3.68388353397371       -2.07524403442081       -0.83379791720880
H            3.35328086164074       -3.02161932472024       -0.90135254882496
H            4.67065539221263       -1.89116608338412       -0.88712842908535
H           -0.47940477930016       -2.76403677144173        0.75134053602728
H           -1.08619878558247        2.01356092552625       -0.69250083070102
N            3.13929208457995        2.36222806155720        0.82317159554288
H            4.14137405646156        2.43224992449808        0.86541303586906
H            2.58376168148323        3.19749054242413        0.88492014276867
