30
 energy: -59.712734702132 gnorm: 0.000722863418 xtb: 6.6.1 (8d0f1dd)
N           -5.65708850728420       -1.28465227496915       -0.14790620368570
C           -4.54477005429233       -0.99483858841185       -0.08147931056387
C           -3.18759022040619       -0.64923505532432        0.02238301968685
C           -2.27912415175657       -1.72882331770830        0.25478283023644
N           -0.99138907602401       -1.72724092869943        0.02595757218028
C           -0.08378635767190       -0.78421144547081        0.02306637843066
N            1.13685309522508       -1.14053034702226       -0.34273774672098
C            2.14032022706690       -0.29271962162087       -0.24322866142050
C            1.92100649300334        1.06434087856654        0.34512046776697
C            3.15969912949469        1.63459150951816        0.60150308331288
C            4.13489339274171        0.74593435148703        0.13852922508624
N            5.46127048887640        0.91642511903469        0.16887147262544
H            6.06798549089133        0.19165917302547       -0.17656657919738
H            5.86073851541464        1.76073851960636        0.53913306858327
C            3.50876516403653       -0.46812304196288       -0.34902349835534
C            4.22291445417188       -1.57899095681786       -0.78777671073319
N            4.87779078374872       -2.45487824245605       -1.14600445132408
H            3.33588052994816        2.59202213632449        1.05003424024074
N            0.69528424187477        1.45478352312572        0.57410252123360
C           -0.32748353093808        0.65166557786503        0.33017481806942
C           -1.55848306086337        1.26802396216993        0.03012834706608
C           -1.46840061357002        2.66605070812690       -0.15999500944669
N           -1.44174027669688        3.80426203361367       -0.31341355193559
C           -2.84952229200375        0.70407555592310       -0.16379232165272
N           -3.83907367051278        1.55330096483878       -0.51542505736964
H           -3.65671624103090        2.53936727703443       -0.59673262568888
H           -4.78047991121544        1.21527115874586       -0.62167130596621
N           -2.78978802082809       -2.91807846576055        0.63522633971059
H           -2.16536649838451       -3.70573643074535        0.66251448268403
H           -3.78386970245367       -3.06932269857149        0.65736003760114
