27
 energy: -52.534254176261 gnorm: 0.000841743559 xtb: 6.6.1 (8d0f1dd)
N            3.23241243568961        2.93060812453528        0.67548139168713
C            2.63526236106647        1.97235977598514        0.46559003291683
C            2.00687081133758        0.73941648085270        0.18220272361814
C            2.92597198209427       -0.27340769257259       -0.34211088370016
N            2.83298147277782       -1.55484449210712       -0.15833053592290
C            1.79576922322763       -2.23911440136240        0.30970888681285
C            0.46329152070820       -1.89358157156993        0.31198201299681
C           -0.40930890925896       -2.91831380473109        0.75190744092026
N           -1.04206451962682       -3.76370259919682        1.19994228016848
C           -0.12319810353893       -0.59992322345788        0.04320101083979
C           -1.46907506894625       -0.51031327601627       -0.26987121793004
C           -2.22091661099503       -1.62098063112447       -0.71129569032662
N           -2.87418320884699       -2.44740973689315       -1.16541419771485
C           -2.14154069521502        0.73793673982794       -0.20138996789475
C           -1.40952084794883        1.90320463268007        0.30727141546983
N           -2.25468505741584        2.98954145673570        0.38708272886211
C           -3.40947217927614        2.56482729760261       -0.03693459455277
C           -3.41667805612046        1.17525531340508       -0.42652441950671
H           -4.25762780971206        0.62452958784659       -0.79891502377366
H           -4.25673062465890        3.22704344290535       -0.07269633554063
C           -0.08648619380552        1.83786662899230        0.57821726628906
C            0.63497884634920        0.62442402334384        0.30078809232777
H            0.45644291284944        2.71426643343222        0.89820011169087
H            2.05620639462294       -3.24261112112750        0.62785169876291
N            4.00605506271941        0.16806549269126       -1.01013358088370
H            4.68040808313609       -0.51327105100903       -1.31490118230934
H            4.23008376968325        1.14705407502578       -1.06212912511339
