33
 energy: -57.276006567131 gnorm: 0.000888152232 xtb: 6.6.1 (8d0f1dd)
N           -5.13022186756120       -1.45431758076871        0.90383896873427
C           -4.14836296086613       -0.92891706145310        0.59901714724280
C           -2.97442173717972       -0.26947108935303        0.22564157345813
C           -3.14077728054147        0.97919652253415       -0.49313879153227
N           -2.31884585803020        1.98163962183358       -0.51689511920828
C           -1.06077681500814        2.02326573224357       -0.05760842387888
C           -0.12425072795337        1.03185055746741        0.11950006494871
C            1.26906374550589        1.40892233350512        0.25796785700568
N            1.65835456262705        2.68884403169166        0.52997105984193
H            2.59598709285289        2.92389160079626        0.24508343056387
H            0.98442507486985        3.43133051572570        0.45569114729665
C            2.23064403819756        0.43783099325119        0.08968773300404
C            1.88167631552880       -0.92889278202679       -0.24182639661019
C            3.09914498507591       -1.56730939984483       -0.48990638106578
N            4.15106095836831       -0.72625842061304       -0.30124027258882
C            3.65760183695795        0.45227647383940        0.05794001327833
N            4.48202210580000        1.53741199853146        0.30136633194214
H            5.45547084393672        1.26283531560966        0.25807412820631
H            4.27075655531540        2.03231494492633        1.15844309618001
N            3.32089752353401       -2.88838691441236       -0.79375405681528
H            2.58921525213750       -3.34945566691129       -1.31148811503775
H            4.25325086806647       -3.07050768876160       -1.13198121611490
C            0.55159674293806       -1.32939149375848       -0.15646296658373
C           -0.44088054406535       -0.40243181442232        0.08740825316543
C           -1.75092769302498       -0.89300706510713        0.45477774022756
N           -1.78558229305340       -2.11280109683592        1.04019862720538
H           -2.66828770404079       -2.50144212118338        1.32838658905280
H           -0.93467344558599       -2.56442192863683        1.32199733596200
H            0.30521728804097       -2.37399152688014       -0.29262664111097
H           -0.75122946886322        3.05881250306071        0.04707349775641
N           -4.30843235275580        1.14400776641354       -1.15894800476457
H           -5.06915807017160        0.50420152465033       -1.00761978665158
H           -4.49827584835142        2.05119523268933       -1.54805707730953
