31
 energy: -59.434934266604 gnorm: 0.000456632588 xtb: 6.6.1 (8d0f1dd)
N            5.57713542748655        0.64736216419386        0.34618311475220
C            4.43526952110667        0.56810065659139        0.22461054047045
C            3.04183500774918        0.49486818378157        0.06087110925324
C            2.38987896965292        1.71279641277731       -0.34168177908643
N            1.14618818445859        2.02688791620432       -0.14243130109914
C            0.05453960045886        1.29540127115666        0.06638779886120
C           -1.08319432853592        1.98240230604087        0.45105758706649
C           -2.33587175527135        1.37738663388746        0.38078684387410
C           -2.45025788722650        0.02282145348727       -0.21148129056093
N           -3.72465426402448       -0.34060843510313       -0.34549513388377
C           -4.44353174673463        0.69279376742727        0.13839222996963
N           -5.77665521613447        0.63612426487780        0.15288890548344
H           -6.32813675976874        1.40085211089065        0.49815037149869
H           -6.22279804240288       -0.19212124017044       -0.20231969344914
C           -3.63322168432814        1.78065256210325        0.59111395989072
H           -3.99205399407610        2.70431301488500        0.99842984867385
C           -1.30753426591377       -0.70549986050771       -0.51454448255254
C           -1.44464576994674       -1.94709877168699       -1.16653603078877
N           -1.58663165305932       -2.89808405969571       -1.79381929887155
C           -0.03241909078187       -0.16363378666744       -0.19170233634885
C            1.03653781167070       -1.02469744955888        0.04077984734132
C            0.73832344109969       -2.40384430946109        0.18421987491300
N            0.61307265298154       -3.52182641499748        0.41739498866631
C            2.42005358939674       -0.72924024883860        0.31423026505207
N            3.18562704871587       -1.73843967131862        0.78668778922955
H            2.80804724200889       -2.66479270053191        0.89303565936280
H            4.17469718464114       -1.59809315239636        0.90636390625365
H           -0.98721356776319        3.02633864154462        0.70642938348229
N            3.16217846741373        2.68214139043675       -0.88894499991830
H            4.16468767387421        2.60781062813352       -0.87067682858757
H            2.74234338225513        3.58531054132070       -1.02516966484821
