31
 energy: -64.242950329602 gnorm: 0.000435784999 xtb: 6.6.1 (8d0f1dd)
N           -6.26219727660096       -0.19697937562389        0.08173364651020
C           -5.11190615556241       -0.19317195799729        0.07424527437034
C           -3.70907287390614       -0.19549461809272        0.07403960023591
C           -3.03038126001916        0.95208520869003        0.56299821772446
N           -1.78854331475310        1.27853435329579        0.24619643441033
C           -0.74690311642808        0.54590092179012       -0.02373570871385
C           -0.72834008119771       -0.94754405562968        0.11077624959417
N           -1.77081032021721       -1.65639237350789       -0.22954370446412
C           -3.02934220734698       -1.32128002872299       -0.46337380179887
N           -3.72008391828550       -2.21639863725071       -1.19330554948931
H           -4.71416812517167       -2.12740326688837       -1.31610204288889
H           -3.25592745404398       -3.06900282268184       -1.45569333872208
N            0.38539280730511       -1.59401212771414        0.41815516188342
C            1.52788020186796       -0.95876511733201        0.27990122293954
C            2.82458632484214       -1.41388831838018        0.52588042987469
C            3.23340986633549       -2.63362919929138        1.06466016040040
N            3.64449220357253       -3.61282921423033        1.50442497393294
C            3.73116096862678       -0.39732019870951        0.09214455441503
N            5.05709544033033       -0.47535793608025        0.14872979367945
H            5.49991654343716       -1.29899971710941        0.52355809897122
H            5.62424723532715        0.29069299682550       -0.17803405100269
C            2.99100217206619        0.72382038723905       -0.39632397642193
C            3.58891400374709        1.89249365222345       -0.86839652653496
N            4.15069187684254        2.81932064697224       -1.25224526363328
C            1.63429716386306        0.41735106896636       -0.27965279131085
C            0.47004843479020        1.16660008126766       -0.40513211813415
C            0.47508796025198        2.53622962986948       -0.74149789820339
N            0.45104678449692        3.64708160911111       -1.02501783879075
N           -3.70507259594867        1.87341525124778        1.27510539761060
H           -4.69923369836957        1.79169313183685        1.40385875066926
H           -3.25023600695102        2.74903923040784        1.47060747458693
