26
 energy: -52.806915681084 gnorm: 0.000246788753 xtb: 6.6.1 (8d0f1dd)
N           -1.72585491906262       -3.16456357284179       -0.59038424588219
C           -1.69476996816451       -2.05693433407081       -0.28721739705788
C           -1.84545859754690       -0.67013458407279       -0.04955336315778
C           -3.21115975482260       -0.25049626927766       -0.06305627009066
N           -3.68545967989478        0.85758972102970        0.49890229801725
C           -3.08456969618305        1.98667133269935        0.71073535070439
C           -1.82563226012949        2.40238048864931        0.25539270665677
C           -0.73711833730845        1.60997162843018       -0.07338321936856
N            0.35397482586478        2.31859134628390       -0.41031086286800
C            1.51435465272979        1.73506291127577       -0.41143801528055
N            2.69648897128111        2.30587488950937       -0.69971571657279
C            3.61185457654722        1.38175932481422       -0.47170611115688
C            3.08559042242925        0.13062775898512       -0.02670101955091
C            3.83595596171889       -1.00674086405923        0.28148602913180
N            4.47979285842982       -1.92508904837108        0.52676457040907
C            1.70857505431854        0.31720439356019        0.01073268209574
C            0.57218068503242       -0.46017955268555        0.22641195768586
C            0.74042848808477       -1.80412279407961        0.63144292519798
N            0.95627278306302       -2.84631814553037        1.05868448628423
C           -0.69944371855847        0.13833940726327        0.07381156660643
H            4.65475780599685        1.59928285233029       -0.62314021902401
H           -1.62447156887209        3.46523896677560        0.23339055610267
H           -3.69338516745983        2.71346899979404        1.23852135651891
N           -4.15539422333605       -1.07736777277795       -0.54180796184241
H           -5.11845943652872       -0.80844089081067       -0.43210291621014
H           -3.92837204252818       -2.00108884762294       -0.87056414124943
