23
 energy: -44.052345533558 gnorm: 0.000837486904 xtb: 6.6.1 (8d0f1dd)
N           -1.78844531247932       -3.19098672135566       -0.07340963866826
C           -1.62282883710622       -2.05922117972530        0.03546159961340
C           -1.50543696433403       -0.66076158801804        0.17977243252461
C           -2.69927395384745        0.09195696640709       -0.02770361755794
N           -2.90825772044060        1.36285780210820        0.30536813423746
C           -1.98024630974096        2.25179604234929        0.55772780334788
N           -0.72734816180210        2.24897748517212        0.19145468651134
C            0.10715750214471        1.25789389886412        0.01686405321592
C            1.39211594932538        1.53474496013629       -0.49284917529604
C            2.35297751382604        0.55676084370000       -0.45667410041873
N            3.66711497371390        0.60033302761561       -0.69723518936085
C            4.18035965471232       -0.52002394929589       -0.18855763752638
C            3.23774698173078       -1.34458493192416        0.45042911930843
C            2.01848279039827       -0.72970303002045        0.23285536752713
N            0.77474260028935       -1.02622395285962        0.54947131640514
C           -0.18964796399254       -0.16750013856831        0.35462966632406
H            3.42014643897051       -2.28368280553029        0.93145338808052
H            5.23438165291162       -0.71261662923657       -0.28886535812186
H            1.62586234568628        2.55202368758007       -0.76610219101770
H           -2.33735981638019        3.18436349830536        0.98237878168500
N           -3.77797706398910       -0.54139039284807       -0.52309142437733
H           -3.76730239441439       -1.53285471380738       -0.69251778770327
H           -4.64044729978182       -0.02803244404805       -0.58331650193275
