26
 energy: -52.025742984172 gnorm: 0.000751625738 xtb: 6.6.1 (8d0f1dd)
N           -2.05820410689611       -3.60449039885700        0.03122894537645
C           -1.82870736585587       -2.47952833460367       -0.01646159064632
C           -1.63105251088288       -1.08484786131138       -0.08306762116470
C           -2.78045704627360       -0.27682057514356        0.18865221419962
N           -2.92401450649768        1.01652353526629       -0.04042264713131
C           -1.95470741492034        1.87509723931740       -0.32130753277321
N           -2.32631650631562        3.04868032758611       -0.85661011225140
H           -1.64981556224392        3.79041881769168       -0.90966138029424
H           -3.30521948847253        3.24708766123023       -0.96384796932059
N           -0.67517158367453        1.77809643551659        0.01917097600122
C            0.09718157086269        0.73162826831672        0.06759540784580
C            1.44535043403469        0.92715596476316        0.48889692381399
C            1.84650915558207        2.23464884103203        0.83784403079450
N            2.15023926408154        3.29814277100932        1.13860847358647
C            2.34841614273729       -0.11680617042770        0.38431698781051
C            1.87657610092600       -1.36614624343812       -0.29659778341416
C            3.03960548140507       -2.06262101197615       -0.59517232585883
C            4.06949110015022       -1.32277997183379       -0.00503399710392
N            3.66499032956718       -0.16530235237991        0.53802700695287
H            5.11069049531413       -1.58887148176482        0.04098395966732
H            3.11922837045506       -3.00969894786118       -1.08803098480331
N            0.60646307224078       -1.57021285709738       -0.55081434516234
C           -0.29952587771509       -0.65979809516014       -0.27756887962479
N           -3.87984357385243       -0.88968205226100        0.66334238793715
H           -3.90911584623826       -1.88823667464876        0.77958280206507
H           -4.71174653711567       -0.34062020386028        0.79209852399550
