30
 energy: -59.718282589488 gnorm: 0.000717903297 xtb: 6.6.1 (8d0f1dd)
N           -5.48536418816600       -0.65029176133534       -0.39349590249038
C           -4.35791775968805       -0.48546075315132       -0.23289564484694
C           -2.98191287285697       -0.29504708264668       -0.02055474127118
C           -2.22899636486930       -1.47192621880828        0.32388993752419
N           -0.94757541872760       -1.65150113199459        0.18106311885985
C            0.07152704594073       -0.81442703229042        0.06813765901052
C            0.02194865435041        0.64444903214137        0.30033294318848
N            1.12521531249001        1.36311697823161        0.53914918864347
C            2.29594599966086        0.82579638981392        0.33566331531755
N            3.47819079153808        1.40657331140006        0.52437310808236
C            4.38954130464818        0.50002366171458        0.13304914110045
N            5.69012319865866        0.78027858076678        0.18474652164812
H            5.97096900753560        1.68951990130686        0.51095191192250
H            6.37938436413701        0.10946625083154       -0.10464257110370
C            3.81400502056905       -0.74523939771985       -0.30017750190685
C            2.46465510448506       -0.56447363837165       -0.19300820198211
C            1.31313495280460       -1.36542689058454       -0.27725609260848
C            1.40991621047873       -2.72932967603710       -0.61295651765386
N            1.51725661036196       -3.83548436860931       -0.90068985084521
H            4.35567553122517       -1.61365523727961       -0.61824810284755
C           -1.13622879014294        1.40482872920345        0.13464775958178
C           -0.92184098317958        2.80614611961176        0.17007455547795
N           -0.83899274478003        3.95092987360583        0.18785967210765
C           -2.48177387379313        1.00453922153384       -0.15443518804960
N           -3.33481835867226        1.98038988246455       -0.53201293194317
H           -3.02836636605335        2.93844181450079       -0.56032444463200
H           -4.30792311717696        1.77059509790109       -0.67835620067513
N           -2.91674225149625       -2.55477912870655        0.74530312474879
H           -3.92113892693002       -2.57776899017983        0.70271735058329
H           -2.40641820875408       -3.41609346981567        0.84312480325863
