28
 energy: -55.492313373751 gnorm: 0.000764676754 xtb: 6.6.1 (8d0f1dd)
N            1.58716059835394        3.41444717828738       -0.24576611251390
C            1.51486067492987        2.27727136748719       -0.09279902203219
C            1.59400646563450        0.86848681902102       -0.02367531529043
C            2.90684426011945        0.35754135916248       -0.34455503573564
N            3.37688090449383       -0.83324511054660       -0.05104592867168
C            2.64919858834561       -1.88022353145889        0.33134043232763
N            1.39742921127998       -2.14404163592900        0.00680873449288
C            0.38902850880550       -1.32107896690803       -0.17938938039274
C           -0.80784815014979       -1.88739602353080       -0.63449073804968
C           -1.98228527661488       -1.19092597156926       -0.47306987602455
N           -3.25025227075787       -1.52977439481070       -0.70855231787387
C           -3.95476415397740       -0.48998166984016       -0.21578395558309
N           -5.28177089114445       -0.44662837586853       -0.26136594138676
H           -5.75665103552641        0.35103796930881        0.12243847248093
H           -5.78718330838157       -1.21160318832337       -0.67118130880006
N           -3.23973157586289        0.52535242333905        0.34622231029743
C           -1.98556579986776        0.13562002542682        0.20002786744405
C           -0.78348291808641        0.76918818172021        0.51571331951408
C           -0.81810186335864        2.02010106188977        1.16122796625395
N           -0.88875020954376        2.99189852448209        1.76837784566054
C            0.42523643331311        0.12639829526548        0.17487176409899
H           -0.80151176687413       -2.90934798371739       -0.97625481815232
N            3.31667935253600       -2.85599960814006        0.97522348050521
H            2.85886419098681       -3.73762509704446        1.12269704377195
H            4.31312233327723       -2.78042768587595        1.07236068766019
N            3.78769704814119        1.19343173008126       -0.92457843851174
H            4.72791897863322        0.86480512022721       -1.05923721773018
H            3.56788950199668        2.16449621186293       -1.06710868825935
