30
 energy: -54.931856979459 gnorm: 0.000634031993 xtb: 6.6.1 (8d0f1dd)
N           -3.58971472437885       -3.50990432145869        0.08351679663382
C           -3.13945281509453       -2.44979550904414        0.05647714760352
C           -2.61487553500062       -1.16299808341984        0.02465833064310
C           -1.25187979338837       -0.80019397004311        0.01665160044690
C           -1.18302141082232        0.67215410389097       -0.01643863323819
N           -0.04983072663591        1.33945198084790       -0.02473062497223
C            1.10522053696147        0.66590438356508       -0.00803529536234
C            2.22136910573744        1.49269486231843        0.00004295309035
C            3.59641172353474        1.19911864188571        0.01660924972955
N            4.21991587642216        0.02867876022433       -0.00095655503045
C            3.67222404182870       -1.17429907812534       -0.01561933163274
N            4.58841120799620       -2.17608226845655       -0.01755996618394
H            4.31474976660252       -3.13432884123243       -0.13150667815024
H            5.55772462382447       -1.92558291022225       -0.09495770939356
C            2.31446482667667       -1.56079686728102        0.00239702618693
C            1.15323996690414       -0.80812103059185        0.00839296189819
C           -0.07725047625554       -1.50303676749950        0.02581092207507
H           -0.07614697161833       -2.58484051635048        0.04320387601836
H            2.16184577874695       -2.63539959513607        0.01097817762693
N            4.44741270064662        2.25420919623758        0.02544196033643
H            5.43248640897638        2.07070584481508        0.08869692917542
H            4.10715355557477        3.19394054909849        0.10978000031937
H            1.96608924118364        2.54518161193460       -0.00529883772150
C           -2.49565344792918        1.15783889160975       -0.03149621167905
C           -2.93091388187626        2.47885161623688       -0.06651865599209
N           -3.35154734417236        3.55010903947334       -0.09651739363088
C           -3.37554392479319        0.03073220834520       -0.00535733826620
N           -4.71251763082198        0.10779336404477       -0.00950705303195
H           -5.16390787553550        1.00622915627928       -0.03329431023612
H           -5.26955954419394       -0.72910461524618        0.01044230913750
