26
 energy: -47.236422653858 gnorm: 0.000863322637 xtb: 6.6.1 (8d0f1dd)
N           -3.81902195312438       -2.79910081799301       -0.02435034161842
C           -3.22411904042461       -1.81311914801896       -0.01994206551255
C           -2.56982751130755       -0.58876038269061       -0.01450606777812
C           -1.21575489432955       -0.27782797660909       -0.01691470309156
C           -1.16463372006328        1.20865275061148       -0.00632874606203
N           -2.39200529015369        1.73566705805864        0.00182410132089
C           -3.23243404494110        0.69269344381707       -0.00368343110572
N           -4.55503914419852        0.86402640394132        0.00247250817878
H           -5.17068211985936        0.06943359398202       -0.00110334636818
H           -4.92266239432747        1.79925075096984        0.01104596879034
N           -0.02729408647770        1.85392443585026       -0.00213427410636
C            1.10166077098673        1.11138154695688       -0.00774077937170
C            2.26008657965220        1.88388942948462       -0.00629386369444
C            3.60061849222462        1.51736096222707       -0.00249308580200
C            4.16761811353943        0.26648485293749       -0.00180085678902
C            3.52585168617023       -0.98927052757527       -0.01210981941835
N            4.33138874663386       -2.08731974312801       -0.04972919668323
H            3.92974875145939       -3.00195494180374        0.05180373647851
H            5.32142794659160       -1.99093304797825        0.08574996820830
C            2.15283504049283       -1.21333716588698       -0.02019007083732
C            1.05136286520042       -0.35175617408842       -0.01643682821966
N           -0.11774340348607       -1.01040878427376       -0.02051735381855
H            1.84667220132905       -2.25433144382851       -0.03041847472922
H            5.25064897978716        0.22761203343714        0.00369650670392
H            4.30000591923103        2.34443528593593        0.00295337625612
H            2.04898521849465        2.94610552896490       -0.00543607083045
