31
 energy: -64.237538831435 gnorm: 0.000794901020 xtb: 6.6.1 (8d0f1dd)
N           -5.97388075976387       -0.46222554655186       -0.10597008985682
C           -4.82483075073837       -0.42374965631228       -0.08354769884728
C           -3.41957142579686       -0.39271253280326       -0.03803977745538
C           -2.77413001069771       -1.58332568660919        0.39692613498664
N           -1.54659380603224       -1.93245948666048        0.08235974854662
C           -0.47050249052479       -1.25546957389373       -0.19265521172769
N            0.55264928792977       -1.98890220984824       -0.64315375507517
C            1.75713150407938       -1.50291122711964       -0.53003559709684
N            2.88832042132531       -2.12543573470784       -0.86747746435431
C            3.88284712110562       -1.34295169095684       -0.44060046250348
N            5.15823289955829       -1.66885358204410       -0.60031358353006
H            5.88702631128647       -1.06142764687767       -0.26326560363534
H            5.38553124177053       -2.53367693829988       -1.06217656220951
C            3.41758650781994       -0.12073507392274        0.20166093985245
C            4.27075619031158        0.84515941485123        0.72459703771064
N            5.04512288960557        1.58955453117365        1.13580675177203
C            2.04022922142213       -0.19206141253675        0.12871859049801
C            0.96234198307295        0.66243632173182        0.38020086061803
C            1.20159816986347        1.93245798431611        0.94619442276427
N            1.43899639294678        2.91140703314668        1.49592102448258
C           -0.32969124176261        0.20025179287434        0.06245441264857
C           -1.39267309579979        1.08806607261494       -0.18227280464243
C           -1.05292488349904        2.44709178300197       -0.38859597939268
N           -0.86984863156875        3.55017638435475       -0.65135935817875
C           -2.77625791638085        0.81138983377320       -0.39434811974339
N           -3.54803530225163        1.80557525279413       -0.88090406425154
H           -3.15824560607143        2.71698792733541       -1.05560435345377
H           -4.54378050241509        1.67887609623692       -0.95239603603806
N           -3.48301306651914       -2.50699009084691        1.07067931341321
H           -4.47274193210489       -2.39790031088448        1.21274034946400
H           -3.04861278450163       -3.39733903603157        1.24445914464095
