29
 energy: -55.988049125136 gnorm: 0.000920558309 xtb: 6.6.1 (8d0f1dd)
N           -5.27563286335873       -1.47901177317201       -0.67339561181638
C           -4.20900330012775       -1.12428164699726       -0.42796844577226
C           -2.90327780719173       -0.71037123830510       -0.11089182142881
C           -1.98982061378642       -1.75668593617921        0.30981707400774
N           -0.70004040255436       -1.74063098342311        0.24130838326233
C            0.19557637540473       -0.75500448852539        0.08330990023392
C            1.49070646085317       -1.16210517245916       -0.17536736326823
C            2.54085577187649       -0.24886655804017       -0.13141174585211
C            2.27517765907657        1.13702957766812        0.26488746342405
N            3.44887583619013        1.85388916321812        0.33523233122322
C            4.39534203106097        1.01908597031778        0.02295741157342
C            3.92048199872230       -0.31591697069495       -0.27964669254611
C            4.70701431782987       -1.40670336275388       -0.63340044367971
N            5.36275968614429       -2.30581800034645       -0.92535832333135
H            5.42599854079486        1.32772343579538        0.00239905059634
C            1.01058121196562        1.56818460614994        0.49887617229967
C           -0.09052719310572        0.67881400772607        0.28725910141509
C           -1.34795511099183        1.24629788890291        0.16664099898292
C           -1.44493858434389        2.65241896666279        0.33545199323706
N           -1.60627712169535        3.78018919957362        0.47679249814395
C           -2.61018766527976        0.64243686418967       -0.21274231229353
N           -3.57304275260441        1.48280769205748       -0.65009387626646
H           -3.42358851516388        2.47704233610570       -0.67371576440710
H           -4.48702328837980        1.12396100012033       -0.87104778249321
H            0.82823160311992        2.59510315055505        0.77656081555402
H            1.67521283517269       -2.20930274891264       -0.35672344048639
N           -2.54526535947850       -2.91120184331759        0.74261167028347
H           -1.92732705613828       -3.68612377393327        0.91214492830778
H           -3.53243835221128       -3.07811188698251        0.65496004899671
