32
 energy: -63.954675423020 gnorm: 0.000817113921 xtb: 6.6.1 (8d0f1dd)
N           -5.64970180494128       -1.63003148090292       -0.32377800482901
C           -4.55718747455330       -1.28788283061233       -0.21319090277793
C           -3.21955251378613       -0.88422515300043       -0.05719846960675
C           -2.32165934828132       -1.86034532820504        0.47462676437002
N           -1.02878415592243       -1.88494407068750        0.28272516536879
C           -0.13827082372614       -0.96032849426162        0.02947931726093
N            1.06061409610584       -1.41541095258480       -0.30567095290560
C            2.09477788830264       -0.60618488823619       -0.20999267531209
C            1.99449890538224        0.77320712300902        0.34393510898513
C            3.26939298346339        1.28358942291973        0.47407061576344
C            4.17036748106356        0.30977664034039       -0.00917299490734
N            5.49714889326536        0.41923626468617       -0.07179150536480
H            6.04639284585756       -0.34148407539466       -0.43830490800924
H            5.95961157763250        1.25373761867202        0.24625817370430
C            3.44326023209556       -0.85770527802643       -0.43769732413718
C            4.05501308382336       -1.99873084816724       -0.94935735686666
N            4.63525942096028       -2.90119864770784       -1.36497671429959
H            3.53780564443775        2.25078924803142        0.85354275755421
C            0.71399300222183        1.30363169911002        0.52748196040712
C            0.59627411886269        2.61297852939111        1.03541941903870
N            0.58487723958306        3.64206115249810        1.54485486195423
C           -0.39986917772745        0.49807737055324        0.20118461909005
C           -1.63399788503487        1.06695707062153       -0.13471018460351
C           -1.65170943805553        2.46387011335672       -0.36893803012863
N           -1.75147435647118        3.57236634162720       -0.65330396463819
C           -2.88752575889648        0.43284782610872       -0.41554209338862
N           -3.85063234973544        1.18560031612679       -0.98980962268237
H           -3.69601874747369        2.16161540337297       -1.17933299055373
H           -4.77162612433806        0.80284146751929       -1.12280827625006
N           -2.83339484897771       -2.91985867008346        1.13236190067704
H           -2.20477899499501       -3.66921408215870        1.36706305789659
H           -3.82620294054132       -3.07766729771264        1.16333089879029
