29
 energy: -56.779284609240 gnorm: 0.000870915371 xtb: 6.6.1 (8d0f1dd)
N            3.68149936537442        2.96129366544879        0.53671282931854
C            3.09069613735747        1.99119289331530        0.36205744840671
C            2.45374223155680        0.75595990609429        0.12193536915645
C            3.34063211947263       -0.26323864318606       -0.44892039869126
N            3.25636676957085       -1.54189846039207       -0.25431489252081
C            2.25101006063969       -2.21902329788813        0.29379956500271
C            0.92337657745202       -1.87341077087279        0.37641271393563
C            0.08163841172619       -2.87419807279586        0.91870620020381
N           -0.52242480005245       -3.68728820744611        1.45682058340861
C            0.32177822591704       -0.58257008526445        0.10885415831562
C           -1.04088945458783       -0.49768305734747       -0.14098515095702
C           -1.78345464674183       -1.63500794252782       -0.53447220669971
N           -2.39092247394671       -2.51399468780970       -0.94963995381075
C           -1.70668355158851        0.74950175998790       -0.06154559446055
C           -0.96489491859681        1.91684099425981        0.39370289110063
C            0.37051088876889        1.85440971656321        0.59452221251217
C            1.08779406939226        0.63849961317196        0.30545373869361
H            0.93632472305393        2.73084640967290        0.87624005912487
C           -1.90607851816219        3.01313676667650        0.48258290164447
C           -3.11578659803227        2.55546336235229        0.09560899502756
C           -3.01707534755824        1.14341408873458       -0.25685115785867
C           -4.09651104127926        0.38563991773602       -0.71331977377199
N           -5.01595757988041       -0.18731034539195       -1.09617550988668
H           -4.03512614926618        3.10869087326262        0.04007544794053
H           -1.65321706629173        4.00571142653441        0.80136783376881
H            2.53428915394878       -3.21490967727644        0.61597512938469
N            4.37676302024203        0.17568491326547       -1.18473804485840
H            4.59835718855503        1.15405509800320       -1.25471047933288
H            5.02934846206350       -0.50731445467897       -1.53062150479404
