26
 energy: -52.817342452615 gnorm: 0.000472627254 xtb: 6.6.1 (8d0f1dd)
N           -3.62024800336995       -2.77612543190033        0.29690101607928
C           -3.03504852821272       -1.78873399110735        0.26852459102459
C           -2.41083613028942       -0.52183682368477        0.22339646977171
C           -3.29227858737240        0.57014503822094       -0.21884464649538
N           -3.18300959024404        1.81625520056908        0.13085681084191
C           -2.12400113505131        2.37395073810658        0.72203439228281
N           -0.88650664159659        2.04102492844092        0.63638656095117
C           -0.33285336957916        0.86528854695481        0.30616500020516
C            1.02358775168250        0.85490584126194       -0.00840199141862
C            1.69799657152286        2.07709505287548       -0.22303427598655
N            2.24924075496018        3.06247477871804       -0.41852656177856
C            1.72332443808648       -0.36771677539859       -0.04975017502541
C            1.03167621347724       -1.60634462187820        0.32742711039759
N            1.91263024165866       -2.66528606356061        0.32441269961707
C            3.06407610192425       -2.17400319918408       -0.01457659460669
C            3.03705433238241       -0.74167799223136       -0.26528511111499
C            4.13818028133683        0.02604511753412       -0.64209888767986
N            5.06895758613202        0.61930251120155       -0.96067435194806
H            3.93800639137884       -2.79614938835911       -0.09350443516286
C           -0.29592583496797       -1.62582371338477        0.59878923981377
C           -1.05097812948060       -0.42012339377365        0.43244066583836
H           -0.79889609751228       -2.54688274082687        0.85204629074760
H           -2.33163465554066        3.31561091100344        1.21812862634649
N           -4.33489671400557        0.23314046548699       -0.99079416276934
H           -4.97136281989569        0.96213176853921       -1.26793540936158
H           -4.55791808182326       -0.72674292482359       -1.19399971186933
