27
 energy: -51.744807462453 gnorm: 0.000711302267 xtb: 6.6.1 (8d0f1dd)
N           -5.28311611023952       -0.15055987088345       -0.27222489831408
C           -4.14334396971715       -0.04991531478701       -0.14888946117793
C           -2.75409637360274        0.06767210945978       -0.00026706302018
C           -2.00608479156573       -1.11216389995488        0.35786650808249
N           -0.72916254009180       -1.30224167887930        0.18520793772681
C            0.28060686564936       -0.44858707226802        0.01352344109650
C            0.15094696184410        0.99782783741184        0.33464576798226
N           -0.93235674763823        1.68587049553686        0.17660613223710
C           -2.15975508955227        1.31641430569366       -0.22280454811106
N           -2.87553800082095        2.32245348421025       -0.76346198035173
H           -3.84520720630286        2.19678360272672       -0.99743101267362
H           -2.46040642498458        3.23617945952436       -0.80759660531011
C            1.31868780048238        1.73670184770069        0.71637499507769
C            2.53171287964348        1.21161080093591        0.42545132973739
N            3.77123314121836        1.79528432318448        0.57153926927391
C            4.62297019730212        0.91846525816032        0.11649434824563
C            4.01972699971256       -0.29789683447896       -0.36207569864453
C            2.67629778769424       -0.13072112608795       -0.17473685114237
C            1.53063745612099       -0.94988289192679       -0.32640246415724
C            1.66845285251391       -2.28714552622272       -0.74215017081665
N            1.79786692485717       -3.37150062792814       -1.09697528009373
H            4.53778944604405       -1.14382815679452       -0.76826366144877
H            5.67821210489468        1.13181809291857        0.12010952682722
H            1.19997285269821        2.73590208824946        1.10324848644370
N           -2.69480586729770       -2.17230904075657        0.83303253364220
H           -3.69999640032630       -2.18169493813474        0.81391730295015
H           -2.19426233314020       -3.03819019400984        0.93813120103939
