28
 energy: -55.496571799040 gnorm: 0.000557065877 xtb: 6.6.1 (8d0f1dd)
N           -4.36813421572992       -2.61566739179033       -1.14962579818935
C           -3.69000354701098       -1.76032832970318       -0.78269720972264
C           -2.92576863294327       -0.69424155990438       -0.33038558543015
C           -1.54524120961731       -0.56516442284952       -0.20272028887074
C           -1.35090696052730        0.80171537420661        0.33981188463320
N           -2.51876240968386        1.42896438300139        0.51831611209272
C           -3.46578870122472        0.56705630437814        0.12761995869680
N           -4.75855006445837        0.87754544158518        0.17261520716676
H           -5.02613614195242        1.78856422033993        0.50446857190689
H           -5.45502591110224        0.21323624782095       -0.11904601263202
C           -0.07516473691790        1.29758384278613        0.54392782015546
C            0.15174332253114        2.61979766290524        0.97057722238492
N            0.35691221369830        3.68938795316149        1.33116401868813
C            1.03147193307041        0.48427375985105        0.16583963516605
N            2.16322256456916        1.07575796443952       -0.07621247388438
C            3.32730448350042        0.52067641506598       -0.45378880955828
N            4.12135949344945        1.33680290091291       -1.16649377704817
H            3.84442748809957        2.29621287516149       -1.27941123828355
H            5.06789204719588        1.05470424832736       -1.34864148520819
N            3.82272572049832       -0.64932491319860       -0.10432173275139
C            3.05596794413014       -1.64850701041615        0.34404226789871
N            3.70836849036775       -2.64001074470337        0.97886766063092
H            3.21399693974606       -3.48958029840366        1.18341217023905
H            4.71089210717024       -2.60985160654919        1.02164129559048
N            1.76881004318051       -1.86230162455095        0.12198360497206
C            0.80763244126663       -0.97571172742076       -0.07679549665617
C           -0.47349090818956       -1.42380099909448       -0.37761919629996
H           -0.62214556981650       -2.45712254235972       -0.64971735798739
