27
 energy: -51.760027917481 gnorm: 0.000697958121 xtb: 6.6.1 (8d0f1dd)
N           -2.04741876850502       -3.33098217789818        0.13766198712272
C           -2.04113197303093       -2.18553992994749        0.03807888687416
C           -2.12344050008923       -0.78303611411120       -0.08472761804201
C           -3.42930799784164       -0.24441936642523        0.12741686473645
N           -3.86959254786131        0.93397835223677       -0.29850735278580
C           -3.12019576073479        1.93896069485168       -0.67298379641850
N           -1.87943339205333        2.21210273418780       -0.36333418669422
C           -0.88432342448355        1.40657501918629       -0.06517815146152
C            0.31407770510536        2.01228425631344        0.34005980952579
C            1.48803390632202        1.30037926266205        0.27767485959066
N            2.73736199049867        1.72979965500986        0.51768165622375
C            3.54141192518779        0.70070922505131        0.23993569777861
N            4.86518696307203        0.77898839924428        0.36430204457568
H            5.44556195038461       -0.01390453820545        0.15030744818396
H            5.27673915581619        1.64226741098958        0.67422994806243
C            2.82028722757465       -0.47652655491972       -0.20420219392352
C            3.42098549713113       -1.67751068379346       -0.55577621858542
N            3.97365154421772       -2.64775505572737       -0.83652244482111
C            1.48177408705637       -0.10374452884498       -0.18341576446024
C            0.27968779944134       -0.75826550851634       -0.41608546538900
C           -0.91513278504495       -0.06998176520257       -0.26795637285002
H            0.27392945488598       -1.81450809759085       -0.64552095306388
H            0.31179332465914        3.06464643161602        0.57197604486053
H           -3.64806948271654        2.73244715361511       -1.19325513253278
N           -4.36514701923540       -1.01897124400997        0.71177076962761
H           -5.30709881150463       -0.66923716812621        0.74478781366949
H           -4.17926236765191       -1.98216492764588        0.93241778459515
