31
 energy: -65.026646084788 gnorm: 0.000786715707 xtb: 6.6.1 (8d0f1dd)
N           -4.95963160468916       -1.02267452901560        1.10910369182835
C           -4.03492513347126       -0.43782321959901        0.75641425642302
C           -2.98530670427421        0.36707884296092        0.32454097930456
C           -3.14935457027737        1.77383277024169       -0.05576217858865
N           -2.00843039839478        2.33405008506868       -0.43642638033998
C           -1.06729517992426        1.38081809950147       -0.32530844108830
C           -1.64284130574714        0.11066494348634        0.13999911047531
C           -0.83277968854774       -1.04119170345875        0.17215473691302
C           -1.43233890652378       -2.26776128877520        0.53639485454726
N           -1.95158094998075       -3.20867824963773        0.93655806595427
C            0.52682790977692       -0.94673242073086       -0.12197280448959
C            1.24518268291324       -2.12005321619955       -0.51247341041059
C            0.50053377227351       -3.21072913270287       -1.02499717933492
N           -0.02289421471919       -4.09227066132406       -1.53855072879902
C            2.62146376001299       -2.28259463806064       -0.58891939716551
N            3.55700071486606       -1.56338461242647       -0.01023504947989
C            3.47552048472044       -0.34989015378841        0.47080751835589
N            4.47219908056127        0.03235554768518        1.28321023902387
H            4.57778008954157        0.99072370157476        1.57172354853930
H            5.21296964392046       -0.62580266759970        1.45953487074155
C            2.47298882394704        0.63379776516585        0.09219250660858
C            2.94197158900342        1.96009904021270        0.23737061844330
N            3.45299220665248        2.95834220824749        0.48698179909549
C            1.14570627129006        0.38081758461651       -0.22441718406690
C            0.29289094069159        1.49394720948351       -0.52903274921458
C            0.79859181181363        2.70983600307388       -1.03540842257888
N            1.13673396328414        3.67775554713899       -1.54955118851021
H            2.99619246105910       -3.17623928344424       -1.07579327557701
N           -4.30302129806560        2.42861776089441       -0.03068919621190
H           -5.14976203114339        1.96603386804895        0.25590406607047
H           -4.32138333968035        3.39190369735574       -0.32190216986206
