28
 energy: -52.278913065466 gnorm: 0.000867543635 xtb: 6.6.1 (8d0f1dd)
N           -4.55862466036368       -2.06905730114158       -0.00211442466788
C           -3.77880130019414       -1.22261014955175       -0.00286828235488
C           -2.88964980588663       -0.15562658190155       -0.00257411132043
C           -1.49977482375311       -0.13378035351079       -0.00182105646097
C           -1.14187929482988        1.28689670919310       -0.00220144394147
N           -2.23207517209812        2.06989110999358       -0.00304523618453
C           -3.27907266384974        1.24189778394148       -0.00325729273883
N           -4.53614665926896        1.68458067435832       -0.00406778147544
H           -4.70169925620184        2.67615888323253       -0.00454527358039
H           -5.30645954596051        1.03843670576747       -0.00419185529759
C            0.18380566696041        1.65370647051422       -0.00168772689121
C            1.20950965149343        0.69520181058150       -0.00081934417555
C            2.52617328316043        1.20127849737191       -0.00033103456982
C            2.67691429755133        2.61599651472407       -0.00033858533951
N            2.89342173431308        3.74229629250484       -0.00167491988114
C            3.77957892926712        0.56838452343348        0.00057475172526
C            4.07318787670557       -0.77408122468360        0.00120530330423
C            3.17221045110411       -1.83710142337343        0.00113999762808
C            1.78784602769772       -1.80939291395313        0.00044305454364
C            1.24840273623470       -3.12712303962617        0.00066721364335
N            0.89972692627509       -4.21939089236664        0.00098153476690
C            0.84717063023195       -0.73376542344648       -0.00043090968691
C           -0.49415300879694       -1.09158150941673       -0.00095367060981
H           -0.77064683740721       -2.13632768542548       -0.00068888692016
H            3.61207498236167       -2.82761312460806        0.00172369219860
H            5.12145194593138       -1.04049414974839        0.00184487810310
H            4.62546093816856        1.24596251315755        0.00078696016929
H            0.43046213485424        2.70421354537973       -0.00198215038592
