29
 energy: -51.185431225082 gnorm: 0.000667446835 xtb: 6.6.1 (8d0f1dd)
N           -4.99725759532882       -0.66598658249575       -0.74284485914790
C           -3.88789434031577       -0.52951298609312       -0.46350760706423
C           -2.53449240940260       -0.38900194216937       -0.12441719261619
C           -1.83840778555276       -1.61873932689555        0.26028796979011
N           -0.58098699786873       -1.86169832954880        0.25701601280526
C            0.49983552986086       -1.05092019126943        0.07291601754217
C            1.68394331976426       -1.70667252902417       -0.16987228621193
C            2.90866529138935       -1.01880351765139       -0.20669254482738
C            2.92093886253502        0.40285487470899        0.11386121708192
C            4.30987357327896        0.83311111815470        0.08440151411550
C            5.05988036467909       -0.24656406329751       -0.23056515962936
C            4.20916801225056       -1.40233115840752       -0.41242220469860
H            4.56080941105274       -2.38684085219552       -0.65961710268666
H            6.12983028596117       -0.27225917358829       -0.33594061352169
H            4.64153011795106        1.83470411413466        0.27976320981247
C            1.77324318567820        1.06510891956246        0.36483074149592
C            0.49844018340527        0.39599203136269        0.23798026029950
C           -0.62213589846173        1.21322333656271        0.20570910374462
C           -0.43451101093104        2.59676961280258        0.43289667579359
N           -0.36018520142651        3.72723828462065        0.63092507553747
C           -1.99350395696787        0.88227761086355       -0.14192920342199
N           -2.78534515276593        1.92210149762234       -0.49620406198501
H           -3.75743339278084        1.75958821159256       -0.69809492826298
H           -2.44907095894736        2.86841581212128       -0.45276913506324
H            1.77949435502713        2.11990622271682        0.60194781397950
H            1.65488614688757       -2.77649384013487       -0.30461922809558
N           -2.64491162016099       -2.64320324054586        0.65016789573435
H           -3.63059839355087       -2.61611916936033        0.45464771368508
H           -2.20363025645947       -3.53716096364869        0.78007336441521
