26
 energy: -52.040062636502 gnorm: 0.000863377089 xtb: 6.6.1 (8d0f1dd)
N           -4.03453059103652       -2.21295483269073       -0.80355252613925
C           -3.34200304890628       -1.33760904915323       -0.52560796660293
C           -2.60263347376463       -0.21408476151928       -0.17234425637039
C           -3.20800656010114        1.03807374463221        0.26719016286927
N           -2.30829806540795        1.97561185251227        0.55346828518728
C           -1.10296703061094        1.42271230179726        0.32522705715952
C           -1.24113809251101        0.01945088385188       -0.13833131888533
C           -0.10390242397506       -0.77598564815325       -0.34485643234908
C           -0.20893929062619       -2.15094457806468       -0.63088110250335
N           -0.28514599996442       -3.26999185827226       -0.87298845716764
C            1.15227353221421       -0.19375211223264       -0.14346417168629
N            2.19841498370357       -0.95008528144581        0.11989317953523
C            3.46867390285377       -0.60802114713694        0.23062914707582
N            4.24758440715333       -1.41904410533167        0.96297641229283
H            3.85561714753674       -2.27279389081076        1.32097486891446
H            5.24442152940139       -1.30292294483934        0.91136140770194
N            4.10281340460596        0.37286057809207       -0.44433838739619
C            3.46931837741027        1.43591914633059       -0.84823519409939
N            2.31617632170481        1.93106575733877       -0.43789003897314
C            1.25075093272252        1.29945301420323       -0.02219604825187
C            0.12528253565664        2.02994117364548        0.39620725409577
H            0.22041838807795        3.07749927567746        0.62985586966973
H            4.02401359398454        2.08650984306619       -1.51809466576431
N           -4.51709450510157        1.24119904921197        0.37387821101796
H           -5.16605856719220        0.50517188513353        0.15072449214203
H           -4.84986772202785        2.13997588905737        0.67924025982747
