24
 energy: -47.784593867696 gnorm: 0.000631550610 xtb: 6.6.1 (8d0f1dd)
N           -4.22401029605969       -2.08981202554242       -1.08360146186114
C           -3.46512705161815       -1.29156822149502       -0.75139930586845
C           -2.62005655673783       -0.26974583481472       -0.33350015620556
C           -1.23014216117309       -0.20300203335657       -0.30232098786835
C           -0.93327916802156        1.12939121130400        0.30594292102994
N           -2.05288842701232        1.77372258788568        0.60845114989609
C           -3.06235494102706        1.00390893336541        0.17478471381098
N           -4.33472969542964        1.39275570402634        0.27478011871129
H           -4.53901603362877        2.28922446929134        0.68030483590843
H           -5.07727529322423        0.77349666080554        0.00002527806237
N            0.30316336565183        1.42775189047697        0.57551507696771
C            1.27752246823423        0.58939577614888        0.31290594591353
N            2.44670670258757        1.06156124139271       -0.06714834072884
C            3.63308654001560        0.47045058426755       -0.10735214750540
N            4.60124845960431        1.24783530293182       -0.62936110367516
H            5.54184696262732        0.91489294518289       -0.73551150120177
H            4.34794560982359        2.16139342130665       -0.96308378138297
C            3.97515109393470       -0.81290445551466        0.37938996782791
C            3.05262557332705       -1.83018079346736        0.53574831407035
N            1.79239885163688       -1.84181491183892        0.18101287518742
C            0.93717510798043       -0.86130855304858        0.06489768867083
N           -0.29189462851366       -1.12159738845477       -0.33687357350369
H            3.41406941609441       -2.80217428017593        0.85486583176872
H            5.02469115861888       -1.05530985446228        0.46443656507462
