29
 energy: -51.202168324953 gnorm: 0.000528207376 xtb: 6.6.1 (8d0f1dd)
N           -2.79731854088697       -3.74344113802766        0.02341193871178
C           -2.51321387695085       -2.62740791989595        0.01592174330266
C           -2.19427814064552       -1.27394945988780        0.00603603552510
C           -0.90084895345003       -0.70402095127528        0.00998294807369
C           -1.05475726611966        0.74934187461191       -0.00572728490308
C           -2.42775132992122        1.03040862121778       -0.01901382135905
C           -3.04902324139118        2.27491251668566       -0.03670293513227
N           -3.60670909494739        3.28224899022253       -0.05182713516150
C           -3.13156503721457       -0.21482268754859       -0.01186133320475
N           -4.46590670083307       -0.34220552346611       -0.02150211868164
H           -5.04964731260189        0.47635954849626       -0.03353490693772
H           -4.88729067932505       -1.25492896436685       -0.01498716407686
C            0.06874461049998        1.55473018815624       -0.00256669914101
C            1.35349487273663        1.01230809891538        0.01282035827194
N            2.31935156956948        1.92908246724203        0.02368629629707
C            3.61611597862407        1.79343379857465        0.03018328366181
C            4.44148784217730        0.67105308906779        0.01348432213025
C            4.05453053726850       -0.66906357784284        0.00473447682974
N            5.03410805582993       -1.61525499993691        0.02570799224339
H            4.80341703101709       -2.58431583881298       -0.09933740405667
H            5.99304075382505       -1.34251501144608       -0.09288516316464
C            2.72543381366808       -1.13583696493928        0.01368302120224
C            1.51366766367108       -0.46501760236679        0.01931319216315
C            0.35236154310603       -1.26267487640512        0.02223770660898
H            0.45522091356708       -2.33948279891761        0.03202094929501
H            2.64066014176806       -2.21877017015238        0.01341180264328
H            5.50734770070008        0.86249379930144        0.00988848838581
H            4.13049822315619        2.75178262324557        0.04387433564814
H           -0.02087867599724        2.63001776935111       -0.00951019717487
