29
 energy: -55.205325281204 gnorm: 0.000704605969 xtb: 6.6.1 (8d0f1dd)
N           -2.76362200283411       -3.44745130276849        0.21849978173637
C           -2.46974142427081       -2.33786684224125        0.14086839182542
C           -2.18601842767983       -0.96141157392239        0.04329583760963
C           -3.30343268326273       -0.14830585307787       -0.37360907697174
N           -3.46701332121111        1.13413973977963       -0.16278429872248
C           -2.53215478378294        1.96868153193359        0.30446562843661
N           -1.22944815703214        1.90700830201778        0.14867918333904
C           -0.43742838043520        0.86993451669026       -0.02103062724108
N            0.81015478110724        1.16351499568756       -0.33461082976409
C            1.73711862185835        0.23059825147012       -0.19532231556572
C            1.45365798040126       -1.12495063576808        0.35339741962996
C            2.66359890635276       -1.80480558178654        0.46760489477828
C            3.67438508026606       -0.96090835589254        0.00236428031361
N            4.98434375199629       -1.22524659452991       -0.07057582396119
H            5.34979156873084       -2.11039702969644        0.23384976413593
H            5.61425590479431       -0.52445481383522       -0.42433520636626
C            3.10278246932311        0.30395946699552       -0.42036172072541
C            3.86716355254663        1.34630422812725       -0.93186201841669
N            4.57384564575918        2.15485055169256       -1.34812514271477
H            2.80121556859677       -2.80321668314375        0.83643890616317
C            0.13485194830069       -1.47939141004575        0.53592464930524
C           -0.86600810114565       -0.54302367522542        0.23879195163126
H           -0.13802730282942       -2.48827193199682        0.81694147037093
N           -3.00297526909256        3.08712579015928        0.89243871588513
H           -3.98707825851630        3.28155888572330        0.84088892265311
H           -2.35170106652040        3.83151677400829        1.07083379246999
N           -4.33535257723379       -0.77227228128817       -0.97727742551087
H           -4.35509457955788       -1.77272558701260       -1.07269744593239
H           -5.15254950982901       -0.22973887645331       -1.19477644589126
