26
 energy: -48.034187608899 gnorm: 0.000678192170 xtb: 6.6.1 (8d0f1dd)
N           -3.98855114876749       -2.06712888040721       -0.00186054635606
C           -3.22698825831604       -1.20496281571568       -0.00288517401308
C           -2.40072997295985       -0.08601401304080       -0.00177989221750
C           -2.89801537882773        1.27803998568007       -0.00152820363024
N           -1.92027968302888        2.18462294198588       -0.00091207632807
C           -0.76995947386777        1.49024100073318       -0.00067050533450
C           -1.02104858623323        0.04372643916145       -0.00110842105989
C            0.06465687688254       -0.84307459537481       -0.00094415897266
C           -0.21081536280487       -2.22794217165762       -0.00101319954153
N           -0.45397351943345       -3.34961065892859       -0.00112477879258
C            1.38515310682298       -0.36440655219245       -0.00035861163357
C            2.41548726814789       -1.32589045518833       -0.00021477677007
C            3.79145925717381       -1.19182887469139        0.00035652912183
N            4.57090596849727       -0.12105531743107        0.00097241820470
C            4.16364461997762        1.12312832673662        0.00115314075816
C            2.88228601290859        1.67918524463230        0.00078134514602
C            1.61767162170279        1.08695712909749        0.00011637886155
C            0.51850783188176        1.96411007006399       -0.00008225160649
H            0.68776763573986        3.02980796723523        0.00023302271698
H            2.86793765319765        2.76318102471913        0.00106078249530
H            4.98651356062083        1.83270698478831        0.00169834199007
H            4.36216336619403       -2.11549481271452        0.00031823332208
H            2.06358588617847       -2.35190215629926       -0.00062875922335
N           -4.18742402039931        1.61423297482512       -0.00199675228231
H           -4.89840086227253        0.90308824588027       -0.00244649017021
H           -4.43888071421495        2.58736552190265       -0.00184238718458
