29
 energy: -55.199712596959 gnorm: 0.000735803725 xtb: 6.6.1 (8d0f1dd)
N           -1.67318976412807       -3.40704906255574        0.59668983451418
C           -1.59555694333054       -2.28946773690847        0.33341909011091
C           -1.64509581439730       -0.89486992702004        0.13213055498898
C           -2.95604713659351       -0.35975168147596        0.19452404267482
N           -3.36383323940170        0.86307303444981       -0.13571797868125
C           -2.64846314020016        1.95788978068097       -0.22997536779043
N           -3.33060213105588        3.04592088595983       -0.64930284297646
H           -2.86979495563375        3.92752145419751       -0.77849557558877
H           -4.28887040873615        2.93510930928727       -0.92896477919786
C           -1.29195545504472        2.15608133331135        0.14483206784035
C           -0.27402349217895        1.23734138587627        0.24661951758273
N            0.92101489816910        1.81049546309445        0.53098480309912
C            2.00504843520008        1.11629780513130        0.36300729992373
C            2.00288738093437       -0.28122419034460       -0.16015351150402
C            3.31624605113001       -0.61958909640106       -0.29641157277735
C            4.04406637371321        0.53799997793359        0.16155453421734
N            5.37414215401776        0.63951461952229        0.21170009055193
H            5.77855101057310        1.48950464396572        0.56421146551581
H            5.96254045525674       -0.12381081709203       -0.06945255068495
N            3.26029783616747        1.54860085034080        0.54916877038809
H            3.74595478759998       -1.53631512927180       -0.64883590674672
C            0.75493301257374       -0.91762609136873       -0.31360369470591
C            0.76851649525520       -2.23542131488981       -0.81101923905643
N            0.89562735071031       -3.26080030715104       -1.31380875456197
C           -0.41177443056038       -0.20574295619029       -0.01440340032910
H           -0.97612382011711        3.18098647103260        0.28985682924973
N           -3.97518158432478       -1.17903379832283        0.53586331161450
H           -3.82336898191727       -2.16031679461524        0.69222021446162
H           -4.90892385128083       -0.81471692927624        0.47522374486777
