28
 energy: -51.484435307871 gnorm: 0.000920278192 xtb: 6.6.1 (8d0f1dd)
N            2.88968592621584        3.69261835662623        0.57035011011703
C            2.56766251053043        2.59973599564636        0.40567284288323
C            2.21198146794911        1.27076962299907        0.19833954550464
C            0.90277148662066        0.72417790421646        0.22154377342110
C            1.01589415838975       -0.71119328766077       -0.05748560907863
C            2.36840730163539       -0.99908140186509       -0.24130224728068
C            2.95855384307743       -2.22725687125185       -0.52299164961418
N            3.49360091794419       -3.21809740876947       -0.76257505442125
C            3.11000194784595        0.22474459867456       -0.08461812185547
N            4.44050659536007        0.32417165708933       -0.19546355645814
H            4.99323816749403       -0.49286464476328       -0.39172624510692
H            4.89426660806309        1.21309582424533       -0.07204125240810
C           -0.11524593234090       -1.51633030734832       -0.02595441356733
C           -1.36226892167708       -0.96701294446684        0.22892653511573
N           -2.35060915301321       -1.82060267944208        0.50282966453541
C           -3.62333216411433       -1.61256201226721        0.61239678373808
N           -4.38987084576906       -0.63532084494421        0.14621885027962
C           -3.97154475898383        0.56829273440045       -0.18127000430858
N           -4.89143995210727        1.35669262758568       -0.77582716498668
H           -5.80314715833806        0.97257747479964       -0.95214152454429
H           -4.69940266668619        2.31419669702426       -1.00594127003102
C           -2.69800050794564        1.15365401875604        0.10547523535088
C           -1.49808301464923        0.51267445060131        0.30657514695735
C           -0.32427543204442        1.29668950658713        0.41107128919857
H           -0.41379026127447        2.36120628784457        0.57647042159014
H           -2.66212457628848        2.23636228317525        0.04225320868950
H           -4.18470658637879       -2.43609725063215        1.04558581105750
H           -0.03408439451706       -2.58694012966035       -0.13233047997608
