24
 energy: -48.563720950901 gnorm: 0.000854180130 xtb: 6.6.1 (8d0f1dd)
N           -1.96672377567406       -2.90164770186598       -0.40907959353723
C           -1.73797584228945       -1.80597461071977       -0.15427906635735
C           -1.56686554972950       -0.42301236404668        0.09667807349833
C           -2.75466415535634        0.38291857782728       -0.17075318997631
N           -2.98186026930202        1.59020106271651        0.28114948720570
C           -2.07257023913794        2.41926597915485        0.77240469514357
N           -0.80919075890997        2.45604514737852        0.51849670989871
C            0.03425590412764        1.50199591028319        0.16553577304043
N            1.21251334987948        1.85786027544565       -0.27056616588745
C            2.18092546708676        0.96872668561648       -0.42670212184593
N            3.43318033348704        1.20548522491069       -0.71724746345102
C            4.09918369390699        0.01766343961047       -0.60005597280715
C            3.31489623096144       -1.00743411098328       -0.12229498811258
C            2.02063918408684       -0.46285043053062       -0.02377510382781
C            0.80626442889490       -0.85221030286384        0.49892033694423
C            0.66358938865519       -2.08726070743030        1.16583998903568
N            0.58970653875034       -3.07191405642760        1.74905058611627
C           -0.29675154080076        0.05017148553073        0.37190679815808
H            3.59987515015552       -2.02210516930241        0.07083424965870
H            5.14327102462245       -0.01597665319683       -0.85382686389740
H           -2.47346638180422        3.25793389648923        1.33063563271339
N           -3.74078192123292       -0.18441259918366       -0.87904727150712
H           -3.70325620731178       -1.14870021368431       -1.16469018853124
H           -4.57949612706346        0.35084673846967       -1.03121388997450
