32
 energy: -64.747368535696 gnorm: 0.000859817237 xtb: 6.6.1 (8d0f1dd)
N            5.04131388721483        0.99737449518970       -0.91275515868016
C            4.09355206806447        0.41698204405929       -0.61790301040303
C            3.01441304224837       -0.38136902449732       -0.25146227881311
C            3.13896998182758       -1.78582251916551        0.10789777099636
N            1.96665249139622       -2.34074541601431        0.42823889794493
C            1.05134798277652       -1.37642183528336        0.28720941600886
C            1.66379448323596       -0.10508706926142       -0.12132913344784
C            0.87145895037928        1.05082254907291       -0.16756117097077
C            1.49971034178722        2.26247255047775       -0.53091111056232
N            2.05191492135259        3.17936560210493       -0.94392610144469
C           -0.50699937947739        0.97625540957132        0.08692165670342
C           -1.20128384257620        2.16881854041664        0.42318886861198
C           -0.42866393803606        3.26306731501968        0.89500333097567
N            0.08529386464855        4.15977899426127        1.39199461657476
C           -2.56789996400675        2.42392157945006        0.47920446576294
C           -3.61994208279928        1.63217481448482        0.07227161536296
C           -3.60019179927859        0.29815431100252       -0.34903509105803
N           -4.75416158649061       -0.20703768001124       -0.83694285193050
H           -4.83105300542233       -1.17534962439656       -1.09897682935317
H           -5.57046515115214        0.37516062691665       -0.89569644147294
C           -2.48766110642196       -0.58617919589815       -0.20839516341849
C           -2.79889962699823       -1.91647478987280       -0.59618787851249
N           -3.14746613266908       -2.90875588493043       -1.05750910925541
C           -1.14824629644211       -0.33835956705698        0.12605590294916
C           -0.32635738099923       -1.46976472002745        0.40552684383077
C           -0.87189606053352       -2.68541487541301        0.87282202635944
N           -1.25551553363364       -3.64279012701541        1.37481445090928
H           -4.59605403018299        2.10053144675510        0.07274610857250
H           -2.82997970834864        3.41556719484143        0.82763628103883
N            4.27728660219393       -2.46859394784233        0.12844818063121
H            5.14561415260055       -2.02390179894802       -0.11893438443577
H            4.25913185003995       -3.43659582407862        0.40286902372274
