23
 energy: -44.051217092822 gnorm: 0.000551779075 xtb: 6.6.1 (8d0f1dd)
N           -1.95185509158145       -3.16794400404711       -0.33470808609576
C           -1.71300780115725       -2.04511135358816       -0.29212997800636
C           -1.50853607789391       -0.64781944839128       -0.25628827156785
C           -2.67348754491263        0.12605882631856        0.16764749219078
N           -2.89464310524493        1.38704082813951       -0.07918583730719
C           -1.99265474892341        2.26442499189733       -0.51831364517816
N           -0.71843389989463        2.26434438242006       -0.36253036626165
C            0.12523602964925        1.25522785692057       -0.12735218337239
N            1.31924207890805        1.56839799899716        0.28501115776069
C            2.28539685071434        0.64529498899099        0.30406286029417
C            2.07061839894145       -0.73283965417625       -0.19450411438750
N            3.24872360139361       -1.41980371938276       -0.18650334747959
C            4.15185906700770       -0.56554565302093        0.22834238569119
C            3.63794722841776        0.73886300501998        0.51361833956170
H            4.20061764385064        1.58814839178655        0.84362000411069
H            5.17824534524417       -0.87259958665209        0.33320182037593
C            0.84207746958281       -1.08388691952732       -0.65553918444771
C           -0.22707104793491       -0.16203917960709       -0.45312008186479
H            0.65594017199721       -2.04894315693759       -1.10468982045632
H           -2.42187424654482        3.16932725669043       -0.93643848759712
N           -3.64208217764414       -0.53830444354195        0.81847684790436
H           -3.60662793581337       -1.53576505905558        0.94424766443152
H           -4.46872891996339       -0.02854692245237        1.08050237810145
