26
 energy: -52.023331363370 gnorm: 0.000664589370 xtb: 6.6.1 (8d0f1dd)
N            0.56365595218451        3.55167426226568        0.59408254252995
C            0.87469481251443        2.47056280882696        0.36032807483811
C            1.32889424073210        1.16813046195570        0.06745762103406
C            2.73993414928059        1.03165993404009       -0.09603940665772
N            3.47721142272468       -0.06260788174443       -0.16575612141175
C            3.09068599584442       -1.32441159278101       -0.02859022795405
N            4.12513685324835       -2.19016518939630        0.03868206515664
H            3.97482109639686       -3.18214269313247        0.05763924925398
H            5.05502840841003       -1.82706250359419       -0.07454294528881
C            1.79691259621136       -1.87165664029096        0.05671664260291
C            0.55579219296935       -1.26055634735420       -0.06647643403898
N           -0.49490488345208       -2.08606085134899       -0.06281589047490
C           -1.70400939365771       -1.65018348397727        0.10592122775097
N           -2.86332439558415       -2.28972960711900        0.03721931987749
C           -3.82159442945567       -1.36714050961416       -0.00733474272601
C           -3.33147923873814       -0.04637858044780       -0.06159096297012
C           -4.07920192653738        1.12883384827577       -0.16185709025633
N           -4.71391892946380        2.08077077075504       -0.25800122611217
C           -1.94146798193491       -0.17038978440953        0.09763484997270
N           -0.92874313867712        0.63088421619946       -0.04684632372751
C            0.32110370911679        0.19027783207905       -0.05283260860251
H           -4.85534676935849       -1.66279501285156       -0.02255230698073
H            1.74405331676576       -2.93589734414125        0.24577825835242
N            3.46003596775946        2.16712402493657       -0.17060918978472
H            3.01929963804007        3.07004185871493       -0.12866052100239
H            4.45715200356076        2.08975084065331       -0.26543779408167
