33
 energy: -68.481348598866 gnorm: 0.000880944280 xtb: 6.6.1 (8d0f1dd)
N           -6.03061253169052        0.10388364331983        0.20616722068603
C           -4.88235352883077        0.10235544750850        0.14652494455886
C           -3.47578138235975        0.11483656703860        0.09747538926258
C           -2.84700703141789        1.32788273660185        0.47358628124759
N           -1.61921129346508        1.69225148351740        0.15002047675615
C           -0.53056305296715        1.02417529531767       -0.09542205181117
C            0.60093263434502        1.81699938183693       -0.45644728869451
C            0.39482538331294        3.17651502447204       -0.76972232122968
N            0.20457858767034        4.27561476381815       -1.03495844357007
C            1.86913285190169        1.28171873737366       -0.34509751083412
N            3.05056165297533        1.88897162567130       -0.52561995275945
C            3.97938292698411        0.99795070592181       -0.18126396236982
N            5.27904448787505        1.26105450433295       -0.23637972570787
H            5.57997569946125        2.16726639508939       -0.55420069235188
H            5.95406324413407        0.56426042442736        0.03199294035134
C            3.40765092071050       -0.27114284710982        0.25717954928287
C            4.17546824354678       -1.35305773562305        0.67470210417129
N            4.88992550742392       -2.19042057253079        1.00760789869405
C            2.04035122740241       -0.10047559104914        0.13812252511569
C            0.92293024899624       -0.93374336531744        0.30764241460884
C            1.13031510393368       -2.24864492559359        0.77543247809779
N            1.33450252178613       -3.27182305343872        1.25323818249896
C           -0.36249812084161       -0.43188196099265        0.05805461413557
C           -1.42956910703347       -1.31334321941468       -0.23573061151098
C           -1.05807951779613       -2.61942756672376       -0.63793240712585
N           -0.84667630961534       -3.66485389667763       -1.06495328736475
C           -2.82702199238940       -1.06855847225456       -0.32649868587838
N           -3.61160233540464       -2.06763969213297       -0.78154180807555
H           -4.61168343922206       -1.95753907981604       -0.79350220938108
H           -3.21665964788883       -2.96201623922045       -1.02050974489940
N           -3.55980234063575        2.27623135350621        1.10761611508508
H           -3.13318737478237        3.17870481290743        1.23490691159953
H           -4.54597367702014        2.16360056693866        1.27090603231142
