29
 energy: -50.403352976846 gnorm: 0.000849441920 xtb: 6.6.1 (8d0f1dd)
N           -4.28931847496603       -2.56253169065441       -0.06227526181941
C           -3.62413509969223       -1.62176377200163       -0.03576453273021
C           -2.89820577644873       -0.44126198116740       -0.00210962520529
C           -1.52573997599816       -0.20837466837175        0.00312760426953
C           -1.38894277087677        1.25948747872903        0.04502729633727
N           -2.59633465611796        1.86399600016671        0.06533348885492
C           -3.49025332661747        0.87710132174361        0.03769878469105
N           -4.80905344067167        1.10969609370326        0.04653287265609
H           -5.45636704399941        0.34205804235817        0.02536908061511
H           -5.13831563481929        2.05765342140538        0.07616667883762
C           -0.13054692003275        1.78919079944588        0.05505762761845
C            0.99221350501402        0.92426715621665        0.02626128180560
C            2.23821749379422        1.52664590122320        0.02520509887418
C            3.54500946440708        1.00923867792633        0.00231793650370
N            4.55462760300106        1.93820924921635        0.05581014427420
H            5.49009621195693        1.64378832293998       -0.16412863405187
H            4.33311560678758        2.89816150344251       -0.14294783391435
C            3.92071925078254       -0.32625234094515       -0.00800914492112
C            3.11457874785683       -1.46977294211490       -0.01291725679608
N            3.76442634124246       -2.67517588105722       -0.07628127278210
H            4.74333663495979       -2.71330595307833        0.14781927792639
H            3.23099253735128       -3.50982979355385        0.09341895681025
C            1.72308058906528       -1.51552366768904       -0.02017663005006
C            0.73881046671435       -0.52350061524693       -0.00688829492386
N           -0.49367532608527       -1.03222484102956       -0.01888634756096
H            1.28894929083256       -2.50876171919423       -0.03846074037844
H            4.98946274587629       -0.51133917973392       -0.01481831145858
H            2.20336435361439        2.61232117168377        0.04733963166981
H            0.01868512956910        2.85931109633744        0.08406384924819
