30
 energy: -60.507738894873 gnorm: 0.000699317670 xtb: 6.6.1 (8d0f1dd)
N           -4.98724238520666       -1.76249266440444        0.53667425411510
C           -4.10548033821576       -1.04318402728077        0.37016408021528
C           -3.11069156865386       -0.09288514021301        0.16901948308221
C           -1.73110542725596       -0.20939712633227        0.08838794938059
N           -0.92700302202324       -1.25804056289983        0.06833871663639
C            0.37768015467479       -1.08124708625668       -0.06597986159373
C            1.08070096285113       -2.30625393959148       -0.19934976357069
C            0.24948003725900       -3.45849559194541       -0.21567357788797
N           -0.34729067950422       -4.43648918653635       -0.24321733034337
C            2.43516919273112       -2.56200968304448       -0.37423263037983
C            3.50247193917862       -1.69546442093110       -0.29449557576394
C            3.50881306302577       -0.32804042581701        0.01331219275797
N            4.72062912440865        0.24509979846213        0.18929321479148
H            4.80552086532234        1.22232899264191        0.41237322341990
H            5.55320306328062       -0.31415414603376        0.13917039993426
C            2.36262861080480        0.51335499365205        0.11618514826744
C            2.67964584262199        1.81673896305953        0.58092804151701
N            3.03988391832332        2.77990127801854        1.09329798949063
C            0.99926948133188        0.24799422265523       -0.10185958224718
C            0.12385827164894        1.36243800413391       -0.24910852655391
C            0.58550413510611        2.64401938565216       -0.62547200114430
N            0.88849538042356        3.66694442679876       -1.04687253253079
C           -1.24339057925282        1.16579137867209       -0.13259323300456
N           -2.25045686585440        2.03995906873023       -0.19995999273892
C           -3.36596361758480        1.32520799378036       -0.00154979089741
N           -4.56707400489165        1.89176832469415        0.02053892442507
H           -4.63575681500654        2.88672879840194       -0.11379860648656
H           -5.39312600187822        1.33470214156703        0.16142014989479
H            4.48255974194359       -2.13559052364286       -0.42956402959784
H            2.68143945709288       -3.60013967379124       -0.56308647588863
