31
 energy: -59.451938198760 gnorm: 0.000950824860 xtb: 6.6.1 (8d0f1dd)
N           -4.87964324437826       -2.09957356303984       -0.79456212599913
C           -4.13539484218862       -1.25978339074538       -0.53502018515609
C           -3.29870837890827       -0.20139183564548       -0.21547882031436
C           -1.91633388312713       -0.12987927709460       -0.11363313311921
C           -1.63406962063736        1.26327106855460        0.25647363707181
N           -2.76956240948847        1.98413116631632        0.37356220712528
C           -3.76147017535413        1.14471406665254        0.10081186617033
N           -5.04276480654119        1.51314248179718        0.11785964605751
H           -5.27470191648805        2.46325429279773        0.34995909512577
H           -5.76758726276631        0.84595754261565       -0.08331146149642
C           -0.33844271313058        1.67918862765549        0.40086759845546
C            0.73758644391056        0.79294631663683        0.17227420216668
C            2.00736534843325        1.36890642383431        0.08109716535572
C            2.12598079855418        2.76316554228607        0.26972526448504
N            2.32469876997244        3.88631960141999        0.41592435913051
C            3.25971636275966        0.74282522626323       -0.26818912780761
N            3.59775648943270       -0.50967322847431       -0.11604979568254
C            2.83478981774239       -1.55631504124575        0.17975967467968
N            3.54490543796733       -2.64587920013758        0.54970240650137
H            3.09852485063161       -3.53949791013038        0.66338590850924
H            4.54695883315046       -2.59056047219048        0.50459497006533
C            1.42912703223863       -1.66358354643144        0.05983193237185
C            0.96336668265178       -2.99402194113639        0.09691973360506
N            0.66714210133387       -4.10522174754105        0.13402615124204
C            0.44664817325812       -0.63688262841570       -0.03940316439085
C           -0.86931096561612       -1.03465443997431       -0.22807928564595
H           -1.08904714470434       -2.07410229771762       -0.42509011753470
N            4.23802678065807        1.53674570136810       -0.75087758332355
H            4.12803895064444        2.53522912504688       -0.79014189901849
H            5.14121558399787        1.12602537972098       -0.91054405197499
H           -0.13540562140757        2.71552380615329        0.62242803774425
