28
 energy: -52.275974345304 gnorm: 0.000666442195 xtb: 6.6.1 (8d0f1dd)
N           -4.77982428847572       -2.17441831161261       -0.44026424826618
C           -3.93288355992094       -1.40687699468997       -0.30423531818691
C           -2.93815954643688       -0.45263976969574       -0.13655737379716
C           -1.55214135712637       -0.60827348474653       -0.08572748834171
C           -1.03074709640237        0.74730140832839        0.10719829907915
N           -2.01191762218421        1.64705022684408        0.18453457418449
C           -3.15640524419636        0.96214700490879        0.03166812810214
N           -4.34086593329611        1.57150346239408        0.04573711543507
H           -5.19055993935456        1.04748028915277       -0.07238576163795
H           -4.36739092236028        2.56844888011104        0.17403591850136
C            0.34516540361254        0.95340855330288        0.17091834970844
C            0.76993512171116        2.26457297576394        0.48553117847747
N            1.02142305846816        3.32120476724240        0.85412281883641
C            1.24309879392031       -0.13268822892828        0.03890251451564
C            2.60781100469567        0.16541162889287       -0.15004670837940
C            2.95410628235872        1.47555931664255       -0.58432891931650
N            3.36266032154727        2.43391952203481       -1.06404635660173
C            3.75339144502174       -0.64060325201618       -0.05105731683703
C            3.84984317256711       -1.98261620895166        0.23246441508173
C            2.80395531011946       -2.90251830403458        0.32356357677878
C            1.45847720115801       -2.67961967983790        0.15974125969843
C            0.69881196037747       -1.49717975644935        0.02363878520153
C           -0.67941803645241       -1.68063596865761       -0.09041877638222
H           -1.07721517316852       -2.68407186683913       -0.14683598528746
H            0.84667952100973       -3.57470564651826        0.18305191270863
H            3.09574166125285       -3.92994732237538        0.49835061171875
H            4.84978420352676       -2.37930151442318        0.34770764024350
H            4.68642075602942       -0.10910626824296       -0.19708585493662
