24
 energy: -43.777675057826 gnorm: 0.000624842022 xtb: 6.6.1 (8d0f1dd)
N            1.96992033008958        3.15317988788798        0.50637333928142
C            1.70222304290454        2.04175890680063        0.39047557066183
C            1.49236886182471        0.65311169832675        0.24317156225204
C            2.69353366920825       -0.09038445991112       -0.16916927828543
N            2.93994011437040       -1.34114777694421        0.05879199967560
C            2.06233615381932       -2.25147781403198        0.51272641886777
N            0.78618545707730       -2.29414296220559        0.42299263703650
C           -0.09236307475287       -1.29703503265082        0.15552721916810
C           -1.37404406065150       -1.67064809695799       -0.16546250087210
C           -2.40685330091474       -0.72122453785949       -0.20688771808819
C           -2.11960623922537        0.66608793163186        0.19849302532838
N           -3.27608288573859        1.41327979691812        0.18852186149742
C           -4.21738241110592        0.58756016837762       -0.17892773773715
C           -3.75788355688648       -0.74905000126825       -0.43835689047423
H           -4.36903477383470       -1.57540997618591       -0.74327232582043
H           -5.23571792073853        0.92677936850367       -0.26476925253808
C           -0.86364542513733        1.06256425718872        0.51300747528115
C            0.21930392966444        0.13687216227022        0.35190216595897
H           -0.65591303277128        2.08228564093781        0.80182829138614
H           -1.57984517846740       -2.71663788658991       -0.33127823596915
H            2.53902767065240       -3.14806363731464        0.89688456718493
N            3.64719671203984        0.61488656800083       -0.80519627471447
H            4.49897909018353        0.13732897229706       -1.04592996254641
H            3.59446386939072        1.61542797177863       -0.89166706763447
