31
 energy: -65.031910611698 gnorm: 0.000658576094 xtb: 6.6.1 (8d0f1dd)
N           -3.31720527762068       -2.69800656029663       -0.89993847699848
C           -2.95060579329293       -1.70358307303834       -0.45758162764140
C           -2.63303703875003       -0.39526657971952       -0.02463024123212
C           -3.71806751639242        0.55255878057393       -0.20170402345271
N           -3.86294308005463        1.67813056000445        0.46654349754014
C           -2.91170891987641        2.32173272253159        1.10702284814957
N           -1.63497372428006        2.29555977888240        0.86549527379591
C           -0.88716880293814        1.33055941191628        0.37660606512828
C            0.43575605990713        1.63601284726226        0.00384369498034
C            0.80888477353925        2.98973007753835       -0.14320092203006
N            1.10025415471910        4.08855196930088       -0.28759244236503
C            1.37912546624280        0.61099535613988       -0.09540810977792
C            0.99943815323172       -0.77114954230310        0.23921970192516
C            2.15888649219982       -1.55372916112036        0.20479611478515
C            2.31166785005036       -2.91979650541509        0.45239664053457
N            2.53294299427845       -4.03173718357627        0.63772260747426
C            3.24385218494910       -0.70474863988271       -0.15923923192049
C            2.75002587850696        0.62966025257736       -0.34217218649458
C            3.56924513510519        1.70190811824194       -0.69974289674718
N            4.31258107940528        2.52305444772543       -1.00532851222783
N            4.51065155371862       -1.08068090966408       -0.30186775568852
H            4.77357378355243       -2.04149805650388       -0.14933410017308
H            5.21479699659598       -0.40559444441444       -0.55448931696298
C           -0.33659646847257       -1.09943015697300        0.45643440972042
C           -0.69067116875764       -2.42274685855964        0.79503292281959
N           -0.94882306107377       -3.48113227887134        1.15371381058900
C           -1.32310052572653       -0.08918155376170        0.34031850772002
H           -3.24658482729379        3.07998534029332        1.80528331491463
N           -4.72459780508992        0.22273015520091       -1.02264873984340
H           -4.77118672512208       -0.68079651622411       -1.46396810065860
H           -5.51191309616111        0.84740441093250       -1.07518502476430
