27
 energy: -51.760568662860 gnorm: 0.000342982453 xtb: 6.6.1 (8d0f1dd)
N            4.33121258522179        1.65802259535181        0.86437853472963
C            3.51250197818785        0.90571537148498        0.56780823167766
C            2.61831568127957       -0.09589584714905        0.20851759777483
C            3.02745404063534       -1.47603428923840       -0.05360545229270
N            2.01353891355520       -2.26186264419877       -0.37447167447478
C            0.90800368169154       -1.47867113677668       -0.34510315836732
C            1.25093031514425       -0.09307421044806        0.01897049161617
C            0.25181227122315        0.89686180822018        0.01888994922479
C            0.59226328982044        2.24762424934801        0.24185771922262
N            0.88722953913536        3.33720286371334        0.44448730395816
C           -1.06838067347379        0.55058513120423       -0.27246925620857
N           -1.91463426012129        1.54225547769342       -0.55226019838657
C           -3.20292431116470        1.53762807439015       -0.64284057407369
N           -4.09569178636108        0.69986193369644       -0.12977308032417
C           -3.85703493101255       -0.55448463068574        0.17991871353955
N           -4.85444313209086       -1.19576925157140        0.81964225364756
H           -5.67738491883143       -0.67206290162027        1.06190575941760
H           -4.79357061015070       -2.16928338312719        1.05514501650256
C           -2.70646239590619       -1.33081786361324       -0.18099119658065
C           -1.42481502436764       -0.88329788072891       -0.39404345135909
C           -0.38964018754813       -1.84044877467129       -0.55762506960844
H           -0.64147360280800       -2.86730450871761       -0.77344510056556
H           -2.84461938253518       -2.40637505337287       -0.15486748546933
H           -3.63623006994104        2.42518544405175       -1.09421914586400
N            4.28846067514530       -1.90305035831751        0.02342697723213
H            4.49486410747490       -2.86491844195657       -0.18137599274786
H            5.02686094477148       -1.26148650725517        0.25615689845013
