30
 energy: -59.724841564901 gnorm: 0.000737332827 xtb: 6.6.1 (8d0f1dd)
N           -1.53130947240670       -3.46092892678125        0.72010070837111
C           -1.60801877851608       -2.35487962815559        0.41322947399354
C           -1.86308940825848       -0.98837956696694        0.16765497249534
C           -3.24628174987719       -0.65629174354395        0.20933761897305
N           -3.82679279047239        0.47081660579950       -0.18464747394881
C           -3.28856805325963        1.65835655085981       -0.33561527299765
N           -4.11523141848166        2.59779005955339       -0.83711322153280
H           -5.04458289741383        2.32903864879374       -1.10831881662778
H           -3.80246814984788        3.54019590638845       -0.98121827280138
C           -1.99061787189741        2.08151704798585        0.05927188706046
C           -0.84900524668746        1.33209268062656        0.22478221466391
N            0.23662057141914        2.08663328275092        0.51943839096198
C            1.41704273692149        1.55832217139361        0.41493987199287
N            2.58293418239293        2.18878288194985        0.63150471504209
C            3.53392854180178        1.32091837041420        0.30457357081727
N            4.82936878854507        1.60991578795408        0.39004891713047
H            5.52113547475259        0.92682853880311        0.13113340722165
H            5.10644667664367        2.51775258052106        0.72194715276943
C            3.01183202576371        0.03652316111546       -0.15191989228653
C            3.82377212640886       -1.01766340233827       -0.55384600864136
N            4.57440270606830       -1.83049045243091       -0.86992619475546
C            1.64119213679619        0.16806065011918       -0.06264412550205
C            0.52149181573557       -0.65420788177785       -0.23533655688807
C            0.72546797934806       -1.96612508986728       -0.71379697306791
N            0.96619787411721       -2.97695954761602       -1.20148574981778
C           -0.75622685599050       -0.12113397252314        0.01634746023031
H           -1.83917376929541        3.14731436195285        0.16941394807963
N           -4.12658586626895       -1.60267575889936        0.59264977413554
H           -3.82695283298569       -2.53864405423213        0.80620591919832
H           -5.10579373225577       -1.38926771904897        0.52195542622906
