28
 energy: -56.275318617540 gnorm: 0.000656063252 xtb: 6.6.1 (8d0f1dd)
N           -3.18158913961054       -3.24771023188236       -0.44832901451537
C           -2.69904277771539       -2.21388372513279       -0.31640302013697
C           -2.20736144233638       -0.89949873260430       -0.14791189473067
C           -3.21308378488413        0.05005438345855        0.34729221417374
N           -3.21300699905684        1.33597200137487        0.18813511851265
C           -2.19344907224146        2.07016383976404       -0.31189808733904
N           -0.91507798663625        1.82590890099410       -0.23255440772901
C           -0.25896832192640        0.67540777569018       -0.09323375914727
C            1.11052500785523        0.76557427683065        0.16875559009184
C            1.66565845691545        2.03194046813465        0.44857235158846
N            2.11014614527399        3.06257905926791        0.68324130453768
C            1.92239378138269       -0.37852364280163        0.07803677448738
C            1.32923018286824       -1.64788552609730       -0.35790064520206
N            2.29993903333896       -2.62047637060356       -0.46082285507971
C            3.41693685383165       -2.04562673161817       -0.13340618281364
C            3.27428639380779       -0.64282700000343        0.21378540769104
C            4.31605261311551        0.19961966213824        0.59545610687922
N            5.20387415451670        0.85836476941937        0.90990042610103
H            4.34537733221299       -2.58913499486615       -0.12890227667040
C           -0.00093732940858       -1.76930114691343       -0.58638366218053
C           -0.86078049788637       -0.65497920482948       -0.32277401783867
H           -0.42584383990783       -2.71490976435282       -0.88752957101180
N           -2.55178002348467        3.26007628978706       -0.82354195032816
H           -3.50051968614963        3.57170523387196       -0.71457808299683
H           -1.82469580249393        3.92141874174446       -1.03553577951676
N           -4.26516488551052       -0.47830495320519        0.99321919192379
H           -4.98442719978912        0.14682325895142        1.31427938672890
H           -4.39087699728100       -1.47234282781687        1.07911465172118
