31
 energy: -64.240290541312 gnorm: 0.000984052476 xtb: 6.6.1 (8d0f1dd)
N            4.74116472098175        2.24294946773155       -1.15878691211177
C            4.00078293203867        1.43948275636861       -0.79902282740052
C            3.18853729425408        0.40152476017445       -0.35808923979330
C            1.81599017327612        0.31845353555117       -0.18882388452225
C            1.57388675042908       -1.06061106001002        0.29436661261591
N            2.71751719807812       -1.73667981963655        0.44289862833183
C            3.68623285130188       -0.89976463423734        0.05236173184093
N            4.96506926170329       -1.25626342552128        0.05545924123067
H            5.67656362629849       -0.60844497594450       -0.23929929474322
H            5.21087704819696       -2.18085191627018        0.36770274372713
C            0.26470363862811       -1.47436161296595        0.46657535255215
C            0.02193698391184       -2.76547852803642        0.98279434028688
N           -0.10342184494412       -3.78010455788227        1.50335876014904
C           -0.78550570474812       -0.56265871890383        0.14235410890753
C           -2.06536321090320       -1.05318591409592       -0.10480278015306
C           -2.26887304035461       -2.44563911576187       -0.24149861338856
N           -2.56602459685234       -3.53149019366702       -0.47440879043646
C           -3.26020751177292       -0.28701302790155       -0.37372771399224
N           -3.51041776681814        0.94066341185226        0.01232460883468
C           -2.67985161001132        1.89642681877759        0.39014180639589
N           -3.26554157378605        2.96894056801809        0.95207375499785
H           -4.26823773775514        2.98899885053844        1.01962171560333
H           -2.73090497423379        3.79854261473995        1.14763036885758
C           -1.27917815439715        1.93328627912737        0.14955134918191
C           -0.68400090093664        3.21355950303080        0.18500257798802
N           -0.29158271471791        4.29120026366546        0.24311577541929
C           -0.39678363418061        0.85098000079190       -0.03791283268716
N            0.85337534263438        1.21883704262701       -0.27666498518538
N           -4.28286639486159       -0.90365204671954       -0.98973512899807
H           -5.14491508865860       -0.39723303613297       -1.09689658755260
H           -4.24229828310029       -1.88216946430656       -1.22055548355815
