25
 energy: -47.509392762435 gnorm: 0.000920382190 xtb: 6.6.1 (8d0f1dd)
N           -2.00812215806491       -3.24766739686264        0.01736839377843
C           -1.87788026538914       -2.10887431422923       -0.07031507748391
C           -1.81908095033265       -0.70356375791657       -0.17461515920118
C           -3.03852442264188       -0.00739725676514        0.07208422133385
N           -3.32115529959742        1.24557543006429       -0.26705036642356
C           -2.44201319958446        2.16609027401481       -0.58305968625929
N           -1.17865367539706        2.24398101834575       -0.26741911179156
C           -0.29884789141753        1.29348992910625       -0.05097047092014
C            0.96734765389864        1.65056370792568        0.43972932155050
C            1.98337897264306        0.72801203428085        0.35655988346732
N            3.28990329818325        0.85544350729185        0.60473005435624
C            3.85434621715520       -0.27980074203993        0.14865269896112
N            5.17249229029109       -0.46849458047963        0.25191610717205
H            5.72675836388747        0.23959881550333        0.70125943583118
H            5.60489468536957       -1.30488053066976       -0.09649921951443
C            2.92121259719178       -1.18957389450901       -0.44133926742928
C            1.69896246863641       -0.59159544654685       -0.28221116691942
N            0.45880317751676       -0.98957916686065       -0.55162192635228
C           -0.52878939326255       -0.15128305847668       -0.35388283168400
H            3.15032397297479       -2.14096196724354       -0.87503542123533
H            1.14174235954550        2.66840030279283        0.75149026518997
H           -2.86114546539940        3.06117086789604       -1.03232824459648
N           -4.06682422262437       -0.68908663609784        0.61597198659046
H           -4.00417298320887       -1.68161026188930        0.76557265436362
H           -4.95524864947372       -0.22379620043423        0.68252648001681
