26
 energy: -48.015289589351 gnorm: 0.000742365476 xtb: 6.6.1 (8d0f1dd)
N           -1.92910415496769       -2.81049774749926        0.93363499070146
C           -1.71648644013911       -1.76631462801756        0.50190761215903
C           -1.59408616200847       -0.41860503134679        0.09773659188246
C           -2.82507303604735        0.25303075127406       -0.02093370261927
N           -3.03080066468212        1.47525229171497       -0.54549931528504
C           -2.19295914941852        2.45250795657788       -0.59829319752141
C           -0.87655597101224        2.54701489793775       -0.08844081180877
C            0.02293686512245        1.53064626750574        0.13935156471284
C            1.35950075833137        1.92470599369390        0.45183115403762
C            2.37891768813067        1.03641242576082        0.33475783872731
C            2.12546922631069       -0.34880755575272       -0.09446232519297
C            3.36204018104640       -0.92835417946837       -0.19587128075503
C            4.28549914823125        0.09677637695907        0.18463822195610
N            3.72149966725020        1.23968470525367        0.49365718661190
H            5.35578580634851       -0.00815745866283        0.22931421651387
H            3.60709717430545       -1.93086202774937       -0.48490044504844
C            0.78700981598039       -0.78218059424746       -0.25114967018789
C            0.59619750852492       -2.11658531382495       -0.66664514477544
N            0.53520024067046       -3.17925025012049       -1.09722101174190
C           -0.26867848907800        0.10073401168990       -0.05776940976166
H            1.55811144466655        2.95833293905804        0.69126388943398
H           -0.49906936482698        3.55588647583526        0.02451852949789
H           -2.59506084415976        3.34790204503405       -1.06382039665315
N           -3.97300629530049       -0.37389916722408        0.31389715277472
H           -3.97539397592669       -1.34117999712420        0.58926187440433
H           -4.83881256255180        0.08821026814227        0.09782798173728
