32
 energy: -53.553277851265 gnorm: 0.000448132624 xtb: 6.6.1 (8d0f1dd)
N            4.96893263889672        1.58675009962815        0.64044012684152
C            4.00192406039280        0.99273096252169        0.42571493734468
C            2.84597072513598        0.24970743090160        0.16878251232576
C            3.06559399589580       -1.08520159921721       -0.34264217786910
N            2.27538728460446       -2.11568512669477       -0.24491991803850
C            0.99637745332425       -2.12103597186871        0.13144377945639
C            0.04632626155040       -1.11891006723254        0.16861436123133
C           -1.30758192305653       -1.55094491920282        0.26819162774250
C           -2.33974987587285       -0.68463509717572        0.11220563366457
C           -2.07206704521445        0.72683588486503       -0.15367603548850
C           -3.30580194068711        1.35143081999165       -0.34838141511048
N           -3.52779594833076        2.69588746914437       -0.57037464686922
H           -4.42693108916224        2.91882845812034       -0.96889615235890
H           -2.76262601000220        3.19365357862439       -0.99855286789536
C           -4.32680558688115        0.38249468634512       -0.17932004537822
C           -3.76501014480633       -0.84690606099342        0.10083363479950
N           -4.42524199720561       -2.04668051096529        0.25490801948313
H           -5.39896301103690       -1.97563969360809        0.50624715312641
H           -3.92110693094977       -2.75692511304133        0.76162189376896
H           -5.38002959738194        0.58640345996065       -0.26215275816655
C           -0.76161179169125        1.18170080157241       -0.11582165497400
C            0.30749236063293        0.31876548081403        0.08456953524104
C            1.60632401574762        0.87734564805768        0.34315496340276
N            1.64960095749317        2.17119546635669        0.74967522159507
H            2.54022997546479        2.57893858868368        0.98180899261251
H            0.81440088690618        2.63033028469971        1.06361019436481
H           -0.58011811798839        2.23718320428435       -0.27384705591634
H           -1.48406908726506       -2.60978978493839        0.40867967649473
H            0.64458264534718       -3.13258368579698        0.31585556429902
N            4.26469636441488       -1.32242818850231       -0.92427308471555
H            5.00425479325823       -0.64409123837462       -0.85970476834515
H            4.48492135876736       -2.27399676835946       -1.16156661836867
