26
 energy: -47.236740336304 gnorm: 0.000803194706 xtb: 6.6.1 (8d0f1dd)
N            4.39541654441151        2.24597166365048       -0.03563338245556
C            3.60234413244511        1.41124669379958       -0.02186039204827
C            2.70580852054083        0.35155949461509       -0.00601757132888
C            1.31823332665130        0.32632736547538        0.00391558876835
C            0.96116402624206       -1.11686093753031        0.01454933990097
N            2.05551617943031       -1.88745578233345        0.01444756012252
C            3.09060824774323       -1.04225446406488        0.00302720732167
N            4.35159547091780       -1.47665816880703       -0.00115460229205
H            4.52488169146949       -2.46643636135367        0.00636351553795
H            5.11386776782078       -0.82144090453514       -0.01075786553376
N           -0.28235941691188       -1.51482709971492        0.01660224890334
C           -1.23790016251160       -0.55213960931029        0.01273145103267
C           -2.51860010057189       -1.08428876367714        0.01436045055739
C           -3.79137992529293       -0.49586012230357        0.00577545773952
N           -4.85202388611582       -1.34877849303080        0.03516473635049
H           -5.78509663522665       -0.99789215810379       -0.08436478128589
H           -4.70183386461642       -2.33620258601364       -0.06748879292950
C           -4.06962017016777        0.87537685620711        0.00026423843729
C           -3.17930763430786        1.93538193302160        0.00678333209566
C           -1.80079189162924        1.93022796799902        0.01087141498627
C           -0.88286752175368        0.86729393186292        0.00752810878882
N            0.39283183534436        1.26966337528573        0.00189778244710
H           -1.30878074994722        2.89514806539867        0.01439661425364
H           -3.63667931493631        2.91727874145959        0.00570724325449
H           -5.12153795200160        1.13543103673415       -0.00611628036789
H           -2.50639121562593       -2.16916406113070        0.02248821034367
