28
 energy: -56.263912550373 gnorm: 0.000859899980 xtb: 6.6.1 (8d0f1dd)
N           -4.79060282577347       -2.14640670823611       -1.01322932992000
C           -3.95699178855960       -1.41974207483845       -0.69655226396763
C           -3.01967330412930       -0.46624598095056       -0.31542124594746
C           -1.65632035362205       -0.56424014715215       -0.08402205762671
N           -0.84865074605023       -1.60857439448967       -0.00642095301098
C            0.41770253154054       -1.40941121135477        0.30614227685255
N            1.07795103741258       -2.48073791364695        0.69454635933795
C            2.34211254492677       -2.71493966407262        0.85133155779008
C            3.42489758272145       -2.02921285849569        0.30316722173340
C            3.41334898315147       -0.73607729874878       -0.21409813000426
N            4.53947352518343       -0.28091599804874       -0.80460331653613
H            5.34579552594161       -0.87666160717598       -0.86715025048921
H            4.62080267906024        0.67683586022560       -1.10241507442591
C            2.32744294282368        0.19546139712118       -0.05513889141179
C            2.65571083626204        1.51402919482680       -0.46340509777992
N            3.00127850678842        2.52235513200501       -0.88987317170343
C            1.00848501298258       -0.04010985336016        0.32337281115445
C            0.10700025202973        1.04665066928966        0.51934499137570
C            0.54468813789383        2.31971079164758        0.94228850591899
N            0.86376773515037        3.33133647844560        1.37865455726313
C           -1.23812604241609        0.80931424284873        0.29532696195642
N           -2.27755515888363        1.64794579084216        0.32247453921129
C           -3.33951659723960        0.92477427177291       -0.05459170581023
N           -4.55068615103513        1.45959069164137       -0.15850226104428
H           -4.67156895083724        2.43509889607916        0.05679630702028
H           -5.33798374067287        0.89335978671160       -0.42714105309395
H            4.37306974357565       -2.55009765771275        0.27582911206671
H            2.55375663687614       -3.63624857517539        1.38494494059298
