27
 energy: -56.548009214303 gnorm: 0.000726897323 xtb: 6.6.1 (8d0f1dd)
N           -2.70161398437993       -3.00942162804158       -0.69660037967692
C           -2.57526434392454       -1.92076840857019       -0.35271677397615
C           -2.49942084879921       -0.57590959542254        0.06910929106697
C           -3.69054520821732        0.20623884677264       -0.09376248866728
N           -3.92837464225690        1.40750247798154        0.41488659625110
C           -3.02228753498127        2.25546497573226        0.84378383436939
N           -1.75659023444814        2.30582710191908        0.55380324809412
C           -0.90831805545986        1.34606240331518        0.28458911635783
N            0.29782900923654        1.66914162899881       -0.14719311659585
C            1.24581829453734        0.75754848844709       -0.22326782639019
C            0.98455670969516       -0.63050808828522        0.25144248597499
N           -0.23742436659051       -0.98206171044036        0.53526635551368
C           -1.22237057538768       -0.10909584685497        0.43302212264526
C            2.21718461440671       -1.28612154819605        0.36374614727340
C            2.47061989371768       -2.57868524451084        0.82572976194698
N            2.74299261847004       -3.63066349419244        1.19906644806336
C            3.21460057612464       -0.39126171349798       -0.10183565611682
N            4.51819806595304       -0.65222758659790       -0.18187846810016
H            4.87073783775382       -1.55374241484988        0.09621045256205
H            5.15898625612993        0.05767469034079       -0.49745877491912
C            2.61448349873633        0.87637362925183       -0.42542964138563
C            3.34476576440335        1.99629819351609       -0.82374203928471
N            4.00371587665643        2.87695795501208       -1.15709886465878
H           -3.41219643971280        3.11262909568068        1.38259670441451
N           -4.71940773216503       -0.34428733855126       -0.75454523323304
H           -4.67788260715787       -1.29194026288674       -1.09175271474877
H           -5.57366034814045        0.18217329053070       -0.82581655547574
