22
 energy: -44.336645472902 gnorm: 0.000908783992 xtb: 6.6.1 (8d0f1dd)
N           -3.74569647835816       -2.39423658415461        0.87667445432737
C           -3.05557992557828       -1.51694030744789        0.60203686036049
C           -2.29410741590965       -0.40358402433826        0.25785877122682
C           -0.92032033814119       -0.22752727571035        0.20806234424306
C           -0.73917007401778        1.17950113459745       -0.27293586227790
N           -1.91025475906985        1.76173223641280       -0.49817621777516
C           -2.84655201912856        0.87450381817868       -0.13314701058151
N           -4.14442688429324        1.16151170398277       -0.18841400461662
H           -4.42800499594549        2.07506855844427       -0.49899320791552
H           -4.83086033309855        0.46491522923680        0.04647304429344
N            0.46553608527590        1.61880168415520       -0.48099482583656
C            1.50815452404376        0.83058011360999       -0.30178361045504
C            2.70806263186029        1.40360243092121        0.16600220879221
C            3.88359192097907        0.72892116365719        0.45457279759706
N            4.28530273476729       -0.44927521232403        0.02517481185060
C            3.52085544132852       -1.37508454306823       -0.51012797341161
N            2.24284919061907       -1.54158136422854       -0.33133245769196
C            1.30450729201282       -0.64166731902104       -0.14284552127418
N            0.09798584156999       -1.06128109221924        0.19192430325567
H            4.03984653115731       -2.19085674395827       -1.00167085917988
H            4.62572760450265        1.24874658127266        1.05261489105919
H            2.62590608192283        2.43671555990165        0.48233236820966
