28
 energy: -56.256533477273 gnorm: 0.000726702205 xtb: 6.6.1 (8d0f1dd)
N           -5.08266334210974       -0.11382660040621        0.54410434872282
C           -3.94795439440278       -0.07537928380283        0.36410563182439
C           -2.55292074426318       -0.02813184046423        0.15191732508322
C           -1.93295085843991       -1.28756721411313       -0.06812531679273
C           -0.54701214062242       -1.52570287744119       -0.10515772201727
C           -0.17152369593387       -2.88071299006711       -0.29245726844298
N            0.05034581585428       -3.99449677187440       -0.45815318436636
C            0.56544015684099       -0.66434642026984        0.06775493175747
N            1.70419261748405       -1.31432020867826        0.22376585727737
C            2.86061167131543       -0.71308742423955        0.16587092383894
C            2.94895792209417        0.74843304578953       -0.12400030749339
N            4.24421445487930        1.08136219606537       -0.04521224096196
C            4.85625564101581       -0.05609652969329        0.24976572185963
N            4.07734857030521       -1.13680050641948        0.45344268262545
H            5.92436864921169       -0.11593004040996        0.35032871133328
C            1.78272963532946        1.46135571008845       -0.11613597916754
C            0.53633787277705        0.79803030994511       -0.03223068593854
C           -0.62541829511961        1.57964938125140       -0.14616752573392
C           -0.42763936340698        2.93291801146269       -0.51381711083455
N           -0.32698410783411        4.03566826090878       -0.81946008773240
C           -1.99408309561324        1.26189915867014        0.10169844052608
N           -2.83648993585596        2.30599193255583        0.25841799554641
H           -3.82458771404746        2.15106658874810        0.36956313895233
H           -2.49840345886593        3.25132933428417        0.19380132024638
H            1.81426973448143        2.54127900868588       -0.11843782883762
N           -2.75017075954646       -2.35191251417528       -0.21542973205606
H           -3.74765810608797       -2.24822636194539       -0.13598702640850
H           -2.36000753683698       -3.27552173906025       -0.30581198112085
