25
 energy: -47.494804547405 gnorm: 0.000986229821 xtb: 6.6.1 (8d0f1dd)
N           -1.30292549962279       -3.32194036654343       -1.28094794125124
C           -1.17966244272169       -2.24531421809594       -0.90202800687466
C           -1.03846028135696       -0.91247455004777       -0.46727831688961
C           -2.14085415437124       -0.08963482222923       -0.26803966420842
C           -3.52086448526718       -0.24251824318327       -0.30107121853634
C           -4.03094234678245        0.86236992658809        0.38293541338022
N           -3.09168328741980        1.67191792929095        0.90773718917363
C           -1.92561121657959        1.17669980017840        0.52557528961558
N           -0.73298545758688        1.65449718220951        0.76482900146954
C            0.32993378332092        1.00090844574612        0.33108521351483
N            1.41124519552688        1.68524467129488        0.06809123977335
C            2.65242060509251        1.28548233985337       -0.19973354748446
N            3.42136720606291        2.25781600333471       -0.74211737600023
H            4.41213710979149        2.13772308931587       -0.84448544546020
H            3.02262321547935        3.17785177834275       -0.81475708173434
C            3.22893699258277        0.04731680276656        0.11019123165762
C            2.49301712157565       -1.11777353168764        0.36431818244671
N            3.11453275744299       -2.22497339199974        0.83302796146546
H            2.60002132099297       -3.08887748182513        0.81358671534397
H            4.11635329262186       -2.26064324153297        0.88693583902823
N            1.22204151234647       -1.29828329912343        0.02759900216448
C            0.23451288008373       -0.45418061777126       -0.03868608462710
H            4.30691110027695       -0.03689852174501        0.07024411925960
H           -5.06960962935874        1.10099480744822        0.53409922850250
H           -4.08029646562942       -1.02519622228458       -0.77429339782618
