22
 energy: -45.113036938744 gnorm: 0.000615270258 xtb: 6.6.1 (8d0f1dd)
N           -2.56548519227626       -3.24533300427559        0.00047802133025
C           -2.00290192276493       -2.24673657067116        0.00025633639104
C           -1.31436794327953       -1.01042952970588        0.00156162249146
C           -2.02067049436620        0.17819510047420        0.00443002159287
C           -1.25703691899836        1.46374402890507        0.00349095176162
N           -2.14003183483448        2.45143546031588        0.00392823416787
C           -3.32447676824747        1.82280474814859        0.00596593677911
N           -3.31698209390501        0.48544984590950        0.00569971474277
H           -4.24695523297196        2.37406836471732        0.00747293461530
N            0.05581820834892        1.51553769756170        0.00119619083400
C            0.73963349654010        0.37992809169538       -0.00010847523966
C            2.14124233806150        0.58884909632115       -0.00072600110542
C            2.53445501166261        1.95642968350512        0.00048412729528
N            2.93476011422200        3.02902015502268        0.00150395020213
C            3.20415399523704       -0.32265949333031       -0.00238318747332
N            3.21186353374810       -1.63471054929789       -0.00438584028629
C            2.16774926455658       -2.43263491531341       -0.00432945107583
C            0.79913418841641       -2.16368892252462       -0.00204272688929
C            0.10658092098752       -0.95185876042179       -0.00049596191502
H            0.16639466717777       -3.04557353356825       -0.00127686605385
H            2.44570648581151       -3.48221558979168       -0.00607050139701
H            4.20028324727455        0.11178447702370       -0.00233036706814
