27
 energy: -46.956190299343 gnorm: 0.000773043562 xtb: 6.6.1 (8d0f1dd)
N           -0.23738863319396       -3.52169156953032       -0.01934862024023
C           -0.30802896820841       -2.37480212192634       -0.01452668693995
C           -0.39079244494283       -0.96841935301684       -0.01226562200506
C           -1.62806150057397       -0.35403869978512       -0.02540728307846
C           -1.67268236847583        1.12753820229360       -0.02556045810109
N           -0.57944955666967        1.88273260531728       -0.01560609110554
C            0.61095030418334        1.30032209943155       -0.00405615512178
C            1.66905181386906        2.23380172267502        0.00222238308936
C            3.03429996981138        2.07497082890916        0.00909977395284
C            3.79071926628895        0.91173918870852        0.01583380265956
C            3.33850876725952       -0.40650133253639        0.02296785477235
N            4.27866072666857       -1.39516736844330        0.07944250060488
H            4.00173928411140       -2.35112444657853       -0.05648440870057
H            5.24624722018572       -1.16729312911607       -0.06198326979161
C            1.99804044923179       -0.83332866168230        0.01548133992755
C            0.79137913724560       -0.15793214231759        0.00066746799678
H            1.89543014144987       -1.91542133749816        0.02189205383561
H            4.86666739865951        1.03847733825853        0.02006992531179
H            3.60850969302583        2.99345585910789        0.00761321386312
H            1.30130038920739        3.25233436386140       -0.00194330077947
C           -3.01089478152210        1.44513830652625       -0.03864977208590
C           -3.68719682598218        0.19139290740936       -0.04518454101069
N           -5.01445364562311        0.01103445158093       -0.06831607885598
H           -5.37131080845614       -0.92755664925777       -0.03897949277950
H           -5.64150941037540        0.79310119978798       -0.02676662091578
N           -2.85867435631033       -0.87202817242047       -0.03775065993890
H           -3.46928126486365        2.41255928474228       -0.04341012186335
