31
 energy: -55.446913771112 gnorm: 0.000672091270 xtb: 6.6.1 (8d0f1dd)
N           -1.28942847582640       -3.90406530115333        0.00502402900010
C           -0.94966460843534       -2.80561183242370       -0.00170215147954
C           -0.49485572334529       -1.47327422195102       -0.00418315157561
C            0.88566874960474       -1.27170697028665        0.00092347286784
C            1.40712871655685        0.09984542568471        0.00229326790820
C            2.79903115467550        0.01291539964957        0.00874338115105
C            3.75641335529151        1.02349355341971        0.01195028509213
N            4.61875302740173        1.78583176051581        0.01895697136038
C            3.13762348337861       -1.38391635693136        0.01139975440829
N            4.39632819551676       -1.84483707593278        0.01825793927086
H            4.58095706885441       -2.83187799736405        0.01888606063898
H            5.16557659782330       -1.19674082829172        0.02081735675327
C            1.95978843012538       -2.14825332162941        0.00654183740582
H            1.90689044638244       -3.22015219992014        0.00694609957153
C            0.51909067021412        1.17235366350582       -0.00137024116622
C            1.05661321087027        2.47766379156564        0.00225252768552
N            1.50586552464974        3.53427796788990        0.00643307183322
C           -0.88722686133133        0.97680615886071       -0.00636695023421
C           -1.67298656644038        2.13251371595671       -0.00772422117424
C           -3.04688456377935        2.32185170103009       -0.00679026976833
C           -4.06431750948925        1.39306730586645       -0.00711886465081
C           -3.95184045653683       -0.00435265670757       -0.01308665956244
N           -5.11029607086041       -0.72224779212032       -0.05663561219737
H           -5.99046659919671       -0.25851279095683        0.07799632388122
H           -5.08491610015853       -1.71936088126206        0.06141295439874
C           -2.76152602228736       -0.73988008606302       -0.01386665009398
C           -1.41362753032981       -0.38944821692979       -0.00895269832436
H           -2.92787868296600       -1.81329843031652       -0.01921056125240
H           -5.07545911424372        1.78131787747432       -0.00595176486441
H           -3.36313141845904        3.35714269357567       -0.00383283046808
H           -1.09924229345950        3.05233697154527       -0.00737985051506
