29
 energy: -55.210588961982 gnorm: 0.000580185022 xtb: 6.6.1 (8d0f1dd)
N           -0.63145768846901       -3.99391159155575       -0.81607636033318
C           -0.61241736063129       -2.86506540506381       -0.59537467716318
C           -0.59969570888809       -1.48704059342886       -0.32666847091789
C           -1.81726054810549       -0.81143658639039       -0.18194284545210
C           -1.82283682121622        0.62032169957185        0.20306564235458
N           -3.06377168240464        1.07075436853689        0.34553477513161
C           -3.86510834618402        0.01320658793392        0.07156083424158
N           -5.19221228368798        0.14941462047095        0.12766315393532
H           -5.57027006131246        1.04824219480947        0.37182083841977
H           -5.80237675298276       -0.62281081865342       -0.07016667404667
C           -3.14393306689483       -1.16783907239099       -0.25863407683713
H           -3.56495225019127       -2.12093097838245       -0.50788992568735
C           -0.62539574104795        1.31477273173520        0.31464260494318
C           -0.60786416984146        2.69503886233613        0.59917792329019
N           -0.58421592911441        3.81598730955646        0.84274757547740
C            0.60449990639879        0.66496020722186        0.03679772261923
N            1.63805578776371        1.45590631001595       -0.10343588252062
C            2.92235471342940        1.18166977932849       -0.29061093828226
N            3.61876583938868        0.11048578710500        0.06808919022009
C            3.10479528871398       -1.09031663015539        0.28223393406908
N            3.99328335875785       -2.00518389320138        0.72939125591893
H            4.94238252291138       -1.71505037383379        0.87996062524075
H            3.72886138625378       -2.96121377257618        0.87687541863210
C            1.78781407834487       -1.54192175733149        0.02526176313030
C            0.62399464814599       -0.80578371851515       -0.14183811718631
H            1.66173550990292       -2.61934417137179        0.04651491424629
N            3.63815609929235        2.19717484450426       -0.81214277959513
H            3.18623588826163        3.08911222532194       -0.91440641417272
H            4.64032328170625        2.13314943170195       -0.81125059727582
