29
 energy: -50.378740185270 gnorm: 0.000857297077 xtb: 6.6.1 (8d0f1dd)
N           -5.41992261574260       -0.14174766979419        0.09475687650454
C           -4.26859252269176       -0.15114782863361        0.07388844871431
C           -2.87629815152439       -0.14841281564319        0.04533874255699
C           -2.04767558058842       -1.30866071788465        0.08049344242976
N           -2.51359779501196       -2.59420941200972        0.09059626915389
H           -1.87242775348612       -3.31445405849664        0.37685205111966
H           -3.47391372860083       -2.72702113071494        0.36362598034479
C           -0.71817951970908       -0.88280350806457        0.01067204567775
C           -0.71709474498221        0.57563052974509       -0.02576696584274
C           -2.07021736473580        0.99888214311311       -0.03519170927103
N           -2.53100255619527        2.30490688417862       -0.08270248191257
H           -2.06768140477583        2.89190158590347       -0.76331005055039
H           -3.53856253000010        2.36081135584088       -0.16308455130429
C            0.46556965291584        1.28826371064737        0.01376572179913
N            0.43601689137010        2.65054382919168        0.11939468506555
H           -0.42678307857286        3.04024485056191        0.46536847410058
H            1.27197413313606        3.11887476285325        0.42553807579071
C            1.72530197927620        0.58392537377811       -0.02459569410208
C            2.88928940578610        1.30040384922188       -0.17927475631145
N            4.14201586724234        0.94486953626062        0.17503536277136
C            4.58100417245190       -0.24898717305440        0.33223757911336
N            4.12056261881840       -1.40729009632888       -0.17406011957733
C            2.86027057704366       -1.66448439575532       -0.33684907703258
C            1.69861974733314       -0.89978834789855       -0.04632738261656
C            0.48669916948847       -1.56835413475960       -0.03876784739238
H            0.49191627772328       -2.64905838417762       -0.07740246484133
H            2.67503844290849       -2.66616619361113       -0.72114012714291
H            5.52647816144840       -0.34357117915100        0.86126014857931
H            2.84027879907549        2.34377827418125       -0.47301041492279
