25
 energy: -48.289468269935 gnorm: 0.000869688383 xtb: 6.6.1 (8d0f1dd)
N            0.52351031132887        3.87943401246008        0.77110984703032
C            0.19559495396147        2.79945580166210        0.56200435989921
C           -0.21518656208960        1.47476872129031        0.32220000953522
C           -1.58433014745645        1.15621585211136        0.20506810886080
C           -1.99613359425563       -0.20234977254941       -0.23875597732958
N           -3.34004942381659       -0.25049360951606       -0.40519622781020
C           -3.77876657117628        0.95433644840206       -0.09732390044127
C           -2.75401752006883        1.86850917979735        0.28265521331140
H           -2.88740420364861        2.89464250786473        0.56099939288353
H           -4.83176670894848        1.17046250843599       -0.14780336223146
C           -1.08318882513165       -1.21856459873958       -0.37206368656466
C           -1.44666151208370       -2.52928538864339       -0.74306445622578
N           -1.71130690466621       -3.59759325491564       -1.06338509325154
C            0.27535052190306       -0.94982056347427        0.02131556583340
N            1.00411806206339       -1.93180257219687        0.42195527466282
C            2.26517084552174       -1.96013939391386        0.85147906104627
C            3.28773355853962       -1.14702600546953        0.45742199290644
C            3.07064825587664        0.07472962709585       -0.26255456152032
N            1.97755332260019        0.79000574752887       -0.19948010685787
C            0.73020223876379        0.47554427573480        0.10168511038299
N            4.09560601731383        0.61968791760959       -0.94774384839838
H            3.97504149859670        1.54298540567141       -1.32797929665633
H            5.01751686846282        0.22648838877554       -0.89796259833391
H            4.30709839841464       -1.42475524075355        0.68760887849433
H            2.47814467379452       -2.82624618396834        1.46704301227491
