23
 energy: -44.053000376419 gnorm: 0.000393322262 xtb: 6.6.1 (8d0f1dd)
N           -0.19120980857171       -3.51442504011871        0.92337090993180
C           -0.19717143624856       -2.39893240477339        0.65626515439494
C           -0.17375361387732       -1.02390077829355        0.35306676117286
C           -1.31541803774304       -0.24740413455502        0.24570840387494
N           -2.59505739679029       -0.60205548518061        0.34610810712179
C           -3.30071885725245        0.47573263683573       -0.05131169485939
N           -4.63136657950951        0.43674641425725       -0.07004716106133
H           -5.09041981821447       -0.40536985273512        0.23313217985229
H           -5.17083650716413        1.22542686217515       -0.37928659714275
C           -2.48227448994921        1.58777396598739       -0.43235429585237
C           -1.19482391777658        1.17689420218949       -0.21892240049426
N           -0.03421891535498        1.83634851988137       -0.26772963478908
C            1.03748087556162        1.14340868848454        0.01758504265701
N            2.10859732816356        1.68417215310126        0.53059588292996
C            3.34570769925594        1.28787403459754        0.64986510771956
C            3.99260240477749        0.33135893756967       -0.13744987180636
C            3.27166136586493       -0.63742074789516       -0.82095831827745
N            2.04434071325825       -1.00091893428382       -0.52267084061022
C            1.03626572063389       -0.37937803602023       -0.02483820350473
H            3.76211760947837       -1.28832837701502       -1.53453461118318
H            5.07224059946112        0.31849279749392       -0.17669728347464
H            3.92259058409662        1.86406619318195        1.36569997543226
H           -2.83061632990044        2.54190344221706       -0.76893240683213
