22
 energy: -40.316376091611 gnorm: 0.000319383142 xtb: 6.6.1 (8d0f1dd)
N            0.81806838688949        3.54571494895698       -0.00490508965278
C            0.66857138397250        2.40899862628740       -0.00378267663799
C            0.54998738761978        1.00077247904467       -0.00201801564255
C            1.72187377941396        0.21545117820403       -0.00218312089169
C            1.59753531176511       -1.25651382410516        0.00278307697963
N            2.83484298135280       -1.82643701652412        0.00314487111058
C            3.68632892022615       -0.82579903532524       -0.00088116981874
C            3.07003795642007        0.46415615692321       -0.00421745361572
H            3.57377667527248        1.41020692395807       -0.00746090268474
H            4.74555134911251       -1.01677357506453       -0.00141268907816
C            0.37817280826321       -1.86015964809831        0.00572223753296
C           -0.81674017311703       -1.08765129236763        0.00234817789709
N           -1.90511829817910       -1.80929534877642       -0.00132967937089
C           -3.18090152846380       -1.41969422964024       -0.00542770821181
C           -3.72377626791316       -0.15849351736843        0.00137574182958
C           -3.00337256607297        1.06543541402012        0.00912782829011
N           -1.73102691784983        1.28345646914748        0.00687930131906
C           -0.70937992881850        0.41134491802212        0.00117483492886
H           -3.59619209493261        1.97550560411396        0.01613225622205
H           -4.80278597302935       -0.07963166188729        0.00082004318708
H           -3.86216633391350       -2.26539294874011       -0.01273936455427
H            0.27848902788177       -2.93434753598058        0.00845770896233
