29
 energy: -52.004059608959 gnorm: 0.000885938726 xtb: 6.6.1 (8d0f1dd)
N           -1.23210783427174       -4.06764246082247       -0.00139998036261
C           -1.00765802064828       -2.94110354018362       -0.00147814701645
C           -0.66722325331221       -1.57231697440555       -0.00146480961386
C            0.69652794737258       -1.26322422918272       -0.00242417441144
C            1.10723267862465        0.14461719540072       -0.00250739209973
C            2.50300586463676        0.16791791139770       -0.00346533280552
C            3.37585598407760        1.25413448543867       -0.00369492470652
N            4.17365464300653        2.08332971060554       -0.00478236187767
C            2.95193202913801       -1.19365720440134       -0.00403684359575
N            4.24059023340193       -1.55884872830624       -0.00500814045587
H            4.96006803848770       -0.85558351746970       -0.00541217157421
H            4.49870109287167       -2.52954274897924       -0.00541752469077
C            1.83450675940346       -2.05049258680942       -0.00337425045242
H            1.86799570735969       -3.12303804694216       -0.00358102546407
C            0.13767195521497        1.14316229613610       -0.00171148052785
C            0.57357730357901        2.48721389306495       -0.00210817807220
N            0.94054744134500        3.57466855370368       -0.00184080277590
C           -1.24831877494354        0.83640097448345       -0.00066598203004
C           -2.11937468724558        1.93247978962759        0.00019843946956
C           -3.50144400775793        2.02805750343085        0.00130664610321
C           -4.44199590496071        1.01177558326426        0.00183938747058
C           -4.20172727040266       -0.35572047598804        0.00141755800831
C           -2.99101661680429       -1.02067998359643        0.00039299074722
C           -1.66155163261099       -0.56871418703163       -0.00053815800633
H           -3.07737666177450       -2.10246095977552        0.00027797870191
H           -5.07841529154864       -0.99059755461067        0.00197309861816
H           -5.48045338640488        1.31644887439018        0.00265927694690
H           -3.89258809493238        3.03728152611557        0.00178945334885
H           -1.61062971680119        2.89065011774548       -0.00003285847547
