22
 energy: -40.339674670837 gnorm: 0.000788675794 xtb: 6.6.1 (8d0f1dd)
N           -0.89945471880906       -3.56942577372163       -0.00170579562533
C           -0.76525112565608       -2.43018480822571        0.00196158882718
C           -0.60742065495313       -1.02539867766061        0.00006202227092
C           -1.72281606717747       -0.20763854880633        0.00008077394754
N           -3.03796915635086       -0.43133222436020        0.00041335358532
C           -3.56233914051044        0.80036386570372        0.00032478524113
N           -2.71954284694562        1.83789509506843        0.00005309195869
C           -1.51633386400183        1.26623756070440       -0.00002579351878
N           -0.33187555348686        1.82907491804276       -0.00023519131330
C            0.75003691170266        1.04829609023437       -0.00030798859312
C            1.93427064384517        1.80767859017676       -0.00035408795354
C            3.26530375543103        1.44795436680816       -0.00045342973492
C            3.81433438757311        0.17156096516514       -0.00053173969549
C            3.14336000428113       -1.04069879394693       -0.00046056294407
C            1.77947708718888       -1.28177880485898       -0.00029522562704
C            0.68007269236104       -0.41775864538135       -0.00027636515874
H            1.50821294584141       -2.33326044903800       -0.00023045216598
H            3.76666643160539       -1.92586426527177       -0.00054111966912
H            4.89564284187282        0.11697579915582       -0.00064667873748
H            3.97274972414678        2.26726199843174       -0.00050328607117
H            1.71928839104234        2.86991476287312       -0.00029349935707
H           -4.62706498860047        0.94804853220700        0.00049459663437
