28
 energy: -57.054046432664 gnorm: 0.000994194808 xtb: 6.6.1 (8d0f1dd)
N           -0.28804801892975       -4.56174843059884       -0.30277553238293
C           -0.29626236994897       -3.42264974279371       -0.17440791505019
C           -0.34542727866149       -2.01828550592885       -0.05027545388748
C           -1.56492495590270       -1.33947043876691       -0.29039937111564
C           -1.66987797243605        0.07717571100167        0.07098316896423
C           -3.05877565269226        0.44706249323766       -0.10998095013584
C           -3.60058970919136        1.71950526604582        0.09410523858957
N           -4.06728895337969        2.75749371824263        0.24681058170504
C           -3.72011237445680       -0.67221322037900       -0.56137850163563
C           -2.81340716258852       -1.77126296637405       -0.66101707335055
H           -3.07935095349471       -2.76618501304102       -0.96362784913804
H           -4.76692412788872       -0.71873401211109       -0.80093066646485
C           -0.58028610692118        0.78933164084858        0.47733035049376
C           -0.69909029943455        2.09651827940946        0.99967721296243
N           -0.82216108173663        3.11264483677020        1.51601200385253
C            0.72748685834615        0.15658236664411        0.37888331780090
C            0.78055802020163       -1.31592297013900        0.35799746085560
N            1.82407527059340       -1.99818657915772        0.86099624226806
C            3.04511709168357       -1.62979227817066        0.98781676558021
N            3.69679238986337       -0.68163973152774        0.30549790758665
C            3.17157064860257        0.38382871561449       -0.21130495360512
N            3.91737082595394        1.09530695253058       -1.06612250780931
H            4.84704427996275        0.76478031721962       -1.26557235127461
H            3.63488269862173        2.00725714965068       -1.38528240300353
C            1.83336014823801        0.92578531096636        0.12072575333003
C            1.74299921122553        2.32523812699999       -0.06115358687557
N            1.81314522548211        3.44557502054879       -0.30243297979452
H            3.67716960938750       -2.25416641964481        1.60829247893767
