24
 energy: -44.569002396282 gnorm: 0.000639435074 xtb: 6.6.1 (8d0f1dd)
N           -1.26094224790174       -3.78561759853562        0.00134021749686
C           -0.89081579060509       -2.70127044179996        0.00121106978204
C           -0.38252757023714       -1.38032707614030        0.00060055402207
C            0.97370043901700       -1.13895174314438        0.00019579002385
C            1.42352180972996        0.27705904978056       -0.00027473965443
N            0.59235976264488        1.30182872308409       -0.00040370202770
C           -0.71443716598941        1.08809070936296       -0.00007408272840
C           -1.47740878577714        2.27166971944461       -0.00048109466088
C           -2.84375884065106        2.45455446450575       -0.00031301141897
C           -3.83310569627196        1.47023407646292        0.00044953853112
C           -3.65626203454935        0.09352805834089        0.00112668042330
N           -2.55897112337889       -0.63688941949382        0.00105737850223
C           -1.29696464696649       -0.27970576929671        0.00053545597798
H           -4.55227458505322       -0.52009387292104        0.00173247473000
H           -4.85905105485187        1.81504641286973        0.00051697645900
H           -3.18915218907689        3.48001881474321       -0.00078571347720
H           -0.85697317859586        3.15999316218769       -0.00105842404263
C            2.81675336374006        0.25536417454451       -0.00045594856027
C            3.67327845572206        1.35810142907617       -0.00051717653989
N            4.38970642491031        2.25638799165436       -0.00207409438830
C            3.22309508272759       -1.11509873334929       -0.00023098963474
C            2.12463001279936       -1.94709611963321        0.00021152261896
H            2.13407465761299       -3.02055477861590        0.00054355400607
H            4.25177068790189       -1.42958608942722       -0.00027538234007
