24
 energy: -43.768232519105 gnorm: 0.000766180778 xtb: 6.6.1 (8d0f1dd)
N            0.54526195060026        3.55193852267723       -0.71919089959623
C            0.61651636697244        2.42054815097964       -0.53198829638495
C            0.70817085478016        1.03163374935605       -0.31156259081260
C            1.94267538987818        0.42765018208400       -0.14621096431905
C            1.95904637258138       -1.01797954790874        0.27607372560077
N            3.19447619300988       -1.38845895423169        0.57535584616668
C            3.96910482542044       -0.31199476093288        0.33789724507138
C            3.27411336889437        0.82047740377635       -0.08787055844677
H            3.68633105963730        1.78145810943619       -0.32461679871180
H            5.03147787296226       -0.38931158045424        0.49339610907258
N            0.88506915032829       -1.76869655334833        0.28372202374411
C           -0.28618557942242       -1.23604284890678       -0.03293292016612
N           -1.22767233502984       -2.11970856644164       -0.29305695633130
C           -2.51690902644860       -2.00310489849570       -0.42680843041135
C           -3.35966260319727       -0.95376338169307       -0.07203591396948
C           -2.98146636462449        0.36681311438049        0.18105123812129
N           -3.94184991236180        1.25924052020025        0.52211339181975
H           -3.71689131592965        2.22710350170177        0.66433154747488
H           -4.89090548025022        0.96132574779616        0.65338745127260
C           -1.68004803125984        0.88317128535743       -0.01957265978422
C           -0.47001323975017        0.24067055191457       -0.16167454313762
H           -1.62759662009871        1.96918581680473       -0.01826286319284
H           -4.41897321262224       -1.17202280774294       -0.02557905889924
H           -2.99328609556934       -2.91416010780820       -0.77813682197946
