28
 energy: -51.460182840681 gnorm: 0.000982153260 xtb: 6.6.1 (8d0f1dd)
N            2.38729457544505        3.52610016288819       -0.01848789091276
C            1.98735812432018        2.44860745645091       -0.00906431368614
C            1.52668907106501        1.11665588978458       -0.00297699726483
C            2.44616832154431        0.08150184708617       -0.00316428242541
C            1.91608351777061       -1.32099413874022        0.00622773866229
N            0.63278172415329       -1.59138137871250        0.00800719619512
C           -0.25687627741881       -0.59718481453317        0.00326734823822
C           -1.57365077666721       -1.08677142492120       -0.00203112973836
C           -1.62652738082088       -2.50737167093316        0.00277826960689
N           -1.79235979155639       -3.64346003191661        0.01087674681393
C           -2.83422589012959       -0.43736129250910       -0.01002678437588
C           -3.05033677843841        0.93987720840141        0.00060001171761
C           -2.13936482902057        1.99225708858025        0.01631632262525
N           -2.64792221985543        3.25450115504472        0.06452124068646
H           -3.63435185906727        3.40878736772924       -0.03815023595305
H           -2.03528175897330        4.04491479409539       -0.02655023639261
C           -0.73561181596225        1.90067286415448        0.01308730561309
C            0.12930679649137        0.82281136160393        0.00356607893466
H           -0.23946637209190        2.86728870174139        0.01984093193513
H           -4.09385678825388        1.23560844087449       -0.00160187352157
N           -3.93516387823449       -1.23015815868242       -0.04507338451562
H           -3.83959381215004       -2.23041819842488       -0.00612928192340
H           -4.85295688965282       -0.82841687080297        0.01174149363527
N            2.91456052490518       -2.19102591926472        0.00988311721699
C            4.03952931329453       -1.44936834891559        0.00293332064748
C            3.82649663328659       -0.07000089500063       -0.00520552226879
H            4.57254005234649        0.70003499430536       -0.01178476276338
H            4.99350724987071       -1.94840404788340        0.00412793371336
