26
 energy: -48.017098013212 gnorm: 0.000815992567 xtb: 6.6.1 (8d0f1dd)
N           -1.40646686841832       -3.75406583449646        0.00531022081696
C           -1.26856456378117       -2.61477215651722        0.00226429708294
C           -1.07840630469646       -1.21495714684246       -0.00164481110027
C           -2.16256226181919       -0.37074975276830       -0.00427177250845
C           -1.91958579997934        1.09523061843351        0.00252664833226
N           -0.69797517264947        1.61471616997379        0.00486046811167
C            0.34930723397007        0.81419920995628        0.00154078291932
C            1.58387949349667        1.52525711956329       -0.00147222732816
C            1.43128769457476        2.93894384770437       -0.00478221147190
N            1.38960566987078        4.08437597482183       -0.00719455730065
C            2.89822464629339        1.08787795377280       -0.00129184959915
C            3.40014707190436       -0.20225165338594        0.00086975098310
C            2.69559722797726       -1.40613894982179       -0.00030347743938
N            3.41190923525818       -2.55775947936093       -0.00749792771757
H            4.41503684853638       -2.53652251058020        0.02010173040349
H            2.95011933579921       -3.44910453681969        0.01860382607648
C            1.28996898758409       -1.55560508749351       -0.00296616088304
C            0.24848137043172       -0.65421525308001       -0.00009560560819
H            0.97490942654982       -2.59583242955768       -0.00792419085311
H            4.47942531895532       -0.29139367212947        0.00215633258303
H            3.64004891232032        1.87798962468976       -0.00227880803913
C           -3.17682863267348        1.65990210832986        0.00933359395910
C           -4.07113874463786        0.56428045488440        0.00197810299324
N           -3.48494427631636       -0.62792156447714       -0.00533517031156
H           -5.14612455124785        0.62261440994539        0.00187744356469
H           -3.43316357120273        2.69906530915557        0.01609944393429
