28
 energy: -46.670838367652 gnorm: 0.000395020882 xtb: 6.6.1 (8d0f1dd)
N           -1.20586164601547       -3.62958492506357        0.15401500587760
C           -0.92254966557180       -2.51638623330168        0.09331152458158
C           -0.62187882821961       -1.14354891381970        0.02500608753943
C           -1.69956535452120       -0.24797674032196       -0.00937402903875
C           -1.42824330868813        1.20373355149945       -0.09002358193100
C           -2.65377702571332        1.85126855930481       -0.11928452461957
C           -3.65830636107827        0.86630059368277       -0.05831132935459
N           -4.98682945816970        1.09582550336295       -0.08594771702274
H           -5.62886301391011        0.33588970882420        0.05129491967889
H           -5.33634170705073        2.03634107118208       -0.04385327381957
C           -3.06384365773790       -0.42298275903107        0.00914125819321
H           -3.59594428947792       -1.35373914698842        0.06335997752256
H           -2.81910879595183        2.91017869109221       -0.17615775420130
C           -0.11996272482678        1.64684975780723       -0.10110477935212
C            0.96569622187414        0.76854259562272       -0.04665729652402
N            2.13941630369574        1.38435005572901       -0.00468638217423
C            3.37563574830950        0.93772874943426        0.01551585318796
N            4.30809043335043        1.93919161969525        0.04832933388010
H            3.95955882548132        2.86521824925115        0.22620380323073
H            5.25756482410986        1.73413033122604        0.30318272711030
C            3.85951209194558       -0.38888640938288       -0.06219807365226
C            3.10387869546013       -1.53604993308371       -0.09388770367756
C            1.71750445508001       -1.66484907615707       -0.04932653872558
C            0.71575820277273       -0.69698624944833       -0.01410889505616
H            1.35683236102918       -2.68789660947787       -0.05597360678283
H            3.65332565178612       -2.46773953331192       -0.14722578752254
H            4.93612717928577       -0.49743087590469       -0.09592626005926
H            0.10290858135239        2.70263111837881       -0.13845225198838
