26
 energy: -52.817439067599 gnorm: 0.000408384480 xtb: 6.6.1 (8d0f1dd)
N           -0.62589266469319       -4.29166738342726        0.47751099680428
C           -0.41654043221229       -3.17838328825943        0.29925799085328
C           -0.13184928043745       -1.81038419909375        0.11237101809876
C            1.20489698117988       -1.34765125184975        0.22773996222020
C            1.53283688535948        0.03655851510971       -0.14512414161264
C            2.97571769523224        0.15825449783640       -0.04851219175374
C            3.71310107030576        1.31689616735289       -0.30813678737969
N            4.33514583245908        2.25988099996120       -0.51448787082530
C            3.45866735106062       -1.06299453642533        0.35665753527363
C            2.37933160265971       -1.98791042994207        0.52462415789562
H            2.48783583828075       -3.01294683681421        0.82431620273399
H            4.49475662428509       -1.29703872078505        0.52256537129519
C            0.56737936759370        0.94113944284832       -0.46368905079886
C            0.81891474246634        2.28506534248352       -0.81427733865667
N            0.97761749641049        3.37983708254847       -1.11251515504955
C           -0.81932279200500        0.52932851682841       -0.28348185413322
N           -1.67200987961336        1.45528081282286       -0.02925371404882
C           -2.99523128712588        1.29239834151733        0.26089508573657
N           -3.49075550222076        2.21506161140295        1.09043824925402
H           -4.48166485260536        2.23252488986220        1.26017017790723
H           -2.90856605238164        2.97994882993152        1.38615572846329
N           -3.81924683109549        0.44083992211337       -0.29995635615216
C           -3.40614665605496       -0.68500054432120       -0.88442987297674
N           -2.31453363084032       -1.35198467901701       -0.70781212495293
C           -1.13426439298169       -0.91987824299987       -0.23915477438189
H           -4.15642871373459       -1.17326455038773       -1.49655586221512
