28
 energy: -51.465552526671 gnorm: 0.000410685293 xtb: 6.6.1 (8d0f1dd)
N           -1.00963682513964       -3.90788017634593       -0.77391953438402
C           -0.80830439397762       -2.80567899631107       -0.52222688321523
C           -0.59016881030988       -1.44378161993198       -0.24513740745748
C           -1.66334461942848       -0.55177941809283       -0.19562906135730
C           -1.44002855400539        0.86242222070178        0.21216932138944
C           -2.66597965472700        1.47384432308811        0.27953081856963
C           -3.64953403705630        0.50527839214057       -0.07806438677308
N           -4.96762393583656        0.73831903849698       -0.12783639637808
H           -5.33312140973544        1.64680209334938        0.09725931637498
H           -5.60494516131119        0.00532987312126       -0.38521540144959
C           -3.02188821153482       -0.72591358777779       -0.37002922683218
H           -3.51817551282293       -1.63294167580800       -0.65583034656723
H           -2.86274731135155        2.49650259433128        0.53766157952557
C           -0.13001371329278        1.35118560044375        0.34922402697151
C            0.10146744676366        2.71838782102762        0.58240684103307
N            0.28120864172382        3.83436286877109        0.78691979156120
C            0.95452909461247        0.48799916198623        0.13572364260982
N            2.12512959614939        0.99596683234738       -0.16873931617698
C            3.31789413225676        0.44661995373708       -0.28212542380836
N            4.21857663260202        1.17772917035089       -0.98147688496194
H            3.94424387574095        2.10015696306316       -1.27361375763515
H            5.19630576974692        0.95441401717079       -0.93616423594104
C            3.73971501922155       -0.74065941445495        0.36759955038132
C            2.86463835257076       -1.70380067797021        0.81723265355593
N            1.59035277211471       -1.85570995418368        0.51098492506062
C            0.70341505548038       -0.99196161707522        0.10050284375273
H            3.26073879487279       -2.53292654545650        1.39452028883062
H            4.80149081277062       -0.89316239061898        0.50575955882002
