34
 energy: -63.399208948324 gnorm: 0.000988558086 xtb: 6.6.1 (8d0f1dd)
N           -0.03503769626469       -4.46125053303812        0.56657591537658
C            0.05406010719985       -3.32356689077398        0.42587559473898
C            0.19062325090787       -1.93355692464477        0.26057936236166
C            1.47335680759378       -1.40473640170200        0.22752003777184
C            1.64836115088059        0.02467426702979       -0.05757829050109
C            3.01030673699891        0.26489485735066       -0.14318740819155
C            3.70534366787106        1.44286718671810       -0.40076511100970
N            4.37642973151573        2.35580105135923       -0.60371736665604
C            3.68467641981772       -0.99464170422939        0.11407746616362
C            2.73433624725864       -1.99013255418598        0.33359109633806
H            2.93557826923779       -3.02360757153590        0.53935764551596
N            5.01858866118401       -1.11948956661728        0.12106327473069
H            5.44956477744643       -2.00618104368506        0.31292599167877
H            5.59558858021342       -0.31410716285666       -0.05455625468918
C            0.52082721438736        0.85134245918571       -0.15755504452540
C            0.72089849858695        2.19415232714765       -0.54538091719905
N            0.92018742944075        3.23712404192115       -0.98216530263421
C           -0.77896271114816        0.33692918068486        0.00915689249378
C           -0.96470257456102       -1.11162809029074        0.06396529998951
C           -2.16331026782797       -1.77587359135327       -0.09935396086062
C           -3.46247017806819       -1.31837629477692       -0.40450125867572
C           -3.91312642966113       -0.00867822361828       -0.34622068016602
C           -3.22546896128051        1.14588638236906        0.04304810985249
N           -3.97504931210421        2.26610129765745        0.20359002743244
H           -4.97573423768731        2.21909526317528        0.14201142629851
H           -3.54650196469944        3.12843306603959        0.49272340031464
C           -1.82767901199456        1.26882950971294        0.22422387274325
C           -1.43634881317727        2.51640280783879        0.76508285374851
N           -1.24620269613091        3.49281389891462        1.34266082559481
H           -4.96756237271721        0.13423213061153       -0.55303365322017
N           -4.37041073060311       -2.28579170817937       -0.70832330738217
H           -5.29492373780108       -2.03649575398414       -1.00826066464799
H           -4.06917464438651       -3.23464428835033       -0.83890769355507
H           -2.08792685332477       -2.85729900238286       -0.05018159973005
