29
 energy: -51.994850066720 gnorm: 0.000835885612 xtb: 6.6.1 (8d0f1dd)
N           -1.57508271483382       -3.82815230466835       -0.00378938331945
C           -1.07996440023582       -2.79199200339085       -0.00775655830759
C           -0.44330713568437       -1.53257172606146       -0.00750117911214
C            0.93727377408714       -1.50983611446223       -0.00416236941280
C            1.64484825088289       -0.22256103009355       -0.00024759435179
C            3.00863539827820       -0.50979477161925        0.00481633406803
C            4.07757142511316        0.38821558058142        0.01119031989968
N            4.98525048800854        1.09323657053212        0.01548635144375
C            3.14638706743338       -1.93196219861700        0.00342218231958
C            1.90711803955932       -2.53038681491794       -0.00188727739246
H            1.70207805393890       -3.58386942157670       -0.00391886936734
H            4.09508265621223       -2.43825099680258        0.00640866191973
C            0.90557234118461        0.96193743391336       -0.00169432133255
C            1.60932834030782        2.18774642447257        0.00216789792550
N            2.18313672625461        3.18151260524456        0.00742989570712
C           -0.50823263279588        0.95557987650185       -0.00589112713641
C           -1.14038230458436        2.20961074449591       -0.00855696646720
C           -2.47194975059167        2.57391260965092       -0.00703229264149
C           -3.60785645835411        1.77995836957635       -0.00294466949270
C           -3.68322917093063        0.38767610335725       -0.00485319696477
N           -4.91798332658555       -0.18198505317201       -0.03119551417315
H           -5.02185615479525       -1.17710637659887        0.05522910344445
H           -5.73936848132769        0.38826535582151        0.05850495521523
C           -2.58914872245954       -0.50216782144459       -0.00884646382689
C           -1.21858158629228       -0.32635956376224       -0.00794861582154
H           -2.89857622237880       -1.54360613797243       -0.01278511634677
H           -4.55707456839883        2.30154415322294       -0.00033054701263
H           -2.65591034412369        3.64031639729554       -0.00713426514823
H           -0.44905389608844        3.04469971809372       -0.01049680311527
