27
 energy: -51.755086335394 gnorm: 0.000763244025 xtb: 6.6.1 (8d0f1dd)
N           -0.96696472142627       -3.83006664967033        1.15649655914372
C           -0.99735540160049       -2.72680167831064        0.84137560342451
C           -0.96872463171791       -1.37257700103937        0.45382938258755
C           -2.12306206427527       -0.67826477509682        0.20654065174793
N           -3.40728433064879       -1.11624235451888        0.26141164089494
C           -4.14498696639631       -0.07877797458968       -0.08102523302471
C           -3.39716211415757        1.09685462979805       -0.37649841744725
C           -2.08212127294903        0.74222328010385       -0.20648946894128
C           -0.84634564892464        1.41566119742139       -0.24778726622441
C           -0.80618306851164        2.79983786945582       -0.50576192034372
N           -0.79551460183481        3.92557105340901       -0.72900936424583
C            0.34182578985616        0.73792086233394        0.03469191395055
N            1.43171858366082        1.48200620908062        0.19959273267104
C            2.68809244274693        1.14130946769094        0.30815438090349
N            3.30872905097238        0.03635782052602       -0.15748707097909
C            2.73800367338221       -1.12176338446581       -0.32835025663777
N            3.49520966264966       -2.08210369541376       -0.88851417563745
H            4.43102603179308       -1.85035072738115       -1.17247859495224
H            3.15126700825810       -3.01595107517953       -1.02015388721196
C            1.40547390047068       -1.52069524722532        0.06870378788671
C            0.30963790177198       -0.72848566821034        0.23338179628392
H            1.25369686152763       -2.59259021819307        0.13838856797965
N            3.51237819214410        2.06627338396886        0.83559029227606
H            3.13900580029037        2.98119453715213        1.02023005075646
H            4.50442472764143        1.93740658975795        0.74627891869134
H           -3.79434505061567        2.04815301330180       -0.66887651118136
H           -5.21661827719554       -0.17211919210850       -0.11725920517889
