24
 energy: -39.775799308723 gnorm: 0.000619567320 xtb: 6.6.1 (8d0f1dd)
N           -0.95429180433202       -3.49065430517308       -0.00025015199099
C           -0.77335830662174       -2.35681179965670       -0.00062106166855
C           -0.60108136340477       -0.95611035855140       -0.00008768233230
C           -1.76739445414496       -0.16370435807844       -0.00004025685256
C           -1.62584600100138        1.30491251985503        0.00015662195270
C           -2.93971166537898        1.84065516202333        0.00010613589044
C           -3.81748846273197        0.78647937615402       -0.00010204183614
C           -3.10776955468249       -0.45095951721729       -0.00020074279668
H           -3.55561014647240       -1.42673430559438       -0.00037065053706
H           -4.89051196445984        0.86405152930386       -0.00018471198379
H           -3.18430956011934        2.88561820631675        0.00021333672695
C           -0.38932119873879        1.87350979354026        0.00028703676540
C            0.79571596903995        1.08727418813618        0.00031371710496
C            1.98940723418910        1.77773894563940        0.00047343636169
C            3.32989338228100        1.32275381741441        0.00052776025749
N            3.82933725950398        0.12662901177129        0.00043848434231
C            3.13779992043107       -1.01608765411518        0.00026624252302
C            1.78354963914113       -1.25914153213233        0.00013954358765
C            0.67261429647037       -0.38464163145482        0.00013939973159
H            1.51411687655151       -2.31022380299853        0.00002522301109
H            3.78782709224579       -1.88471915020827        0.00022185756428
H            4.08558413977978        2.10354281479095        0.00066613061549
H            1.89654826400541        2.85841840694586        0.00056230050519
H           -0.28507219605041        2.95021086778908        0.00037851945783
