31
 energy: -55.437154101203 gnorm: 0.000810177952 xtb: 6.6.1 (8d0f1dd)
N           -0.73804891788622       -4.22951026552964        0.00394692262822
C           -0.42130757079878       -3.12495954885849       -0.00043901031024
C           -0.00522980283606       -1.77845413258464       -0.00121279744426
C            1.35763116173135       -1.52393611160058       -0.00020351263125
C            1.83482788491115       -0.13120882534732       -0.00053784657594
C            3.23408894325152       -0.18165072907717       -0.00217360945750
C            4.12703414225347        0.89055136674516       -0.00360875168044
N            4.89258683254565        1.74842114713931       -0.00602524980358
C            3.60661568303586       -1.55126132547792       -0.00213177228476
C            2.48072806511766       -2.35746060329562       -0.00080383835202
H            2.46439643703152       -3.43064440327056       -0.00072244158873
H            4.62614574191062       -1.89436793707817       -0.00299284074541
C            0.91284048724741        0.90787016039449        0.00242907519961
C            1.38782218146975        2.23678227294171        0.00179845496173
N            1.75425174348845        3.32528228711108       -0.00069717257014
C           -0.49202352330687        0.66237139128695        0.00477557671940
C           -1.30800456269039        1.78490644066199        0.01385993496179
C           -2.69970922548617        1.96593329291298        0.01377150839810
C           -3.67583695775020        0.96988373950810        0.00006528377018
C           -3.51270508534226       -0.41079068269075       -0.01210102327755
N           -4.64114223167270       -1.17478627523342       -0.06742909666571
H           -5.54053476517934       -0.75032082402789        0.06796587845762
H           -4.57471804859493       -2.16967483777747        0.05216183095146
C           -2.29570857261389       -1.11797808072781       -0.01076082862709
C           -0.96944222362643       -0.72453666742347       -0.00259181542235
H           -2.43417842269972       -2.19493099802793       -0.01980369326447
H           -4.70161546142308        1.32079631222013       -0.00068454798005
N           -3.13107725339825        3.25830330046233        0.06858076931429
H           -2.47086459519662        4.00697189755151       -0.04275281927858
H           -4.10218622027725        3.47044571908462       -0.06993523736086
H           -0.76064163221531        2.72206473040834        0.02406008055855
