28
 energy: -56.266361013750 gnorm: 0.000901488699 xtb: 6.6.1 (8d0f1dd)
N            1.80563460189841        3.87841818806185       -0.87727230856946
C            1.56060181512916        2.78742504267321       -0.61923037515258
C            1.28318588303219        1.43772736286182       -0.32792851451572
C            2.32107791249998        0.48448547820020       -0.33500431064022
C            2.05934351659508       -0.87054801982494        0.20124865921175
N            3.21001726437635       -1.58904889826483        0.24642154744389
C            4.14482857812066       -0.78433670710495       -0.21417758752144
C            3.67090928931099        0.51300515357763       -0.57510458814579
H            4.25960642739271        1.32273113460363       -0.95678735712283
H            5.16113138871132       -1.12919818978576       -0.28947101063007
C            0.79392594951502       -1.25862278156645        0.56338593981505
C            0.58010265783214       -2.49683937304310        1.20336355083865
N            0.43687158722764       -3.46058296863726        1.80832908596872
C           -0.30426409215815       -0.36650706970181        0.27588351480609
C           -0.00449006774855        1.07091396268505        0.06480805511786
N           -0.86861902810455        2.04143842311202        0.33752214866475
C           -2.16087002491024        1.98628882072154        0.51154316929138
N           -3.01088818577566        1.11482344551843       -0.06870624262847
C           -2.73192770105785       -0.10564010405295       -0.40775421446136
N           -3.63560983384665       -0.74376802671605       -1.16624844663006
H           -4.47282361488939       -0.24655815527848       -1.41971939661398
H           -3.55810535755950       -1.72626468603525       -1.36889407915904
C           -1.55321007368354       -0.87936861565061        0.01735407050492
C           -1.76966937568996       -2.27744120934045       -0.03536505599432
N           -2.08064559026660       -3.37332124770587       -0.17808714762758
N           -2.73652739401688        2.98798891251263        1.19824316374475
H           -2.16217224402768        3.76675557625027        1.47092074834626
H           -3.73462912916251        3.09254924027168        1.15638574940439
