24
 energy: -44.569626323565 gnorm: 0.000346246424 xtb: 6.6.1 (8d0f1dd)
N           -1.13722812441575       -3.85008714533182       -0.00111623753734
C           -0.80647010930944       -2.75196000009694       -0.00077226576713
C           -0.35355164116892       -1.41175701267613       -0.00049513752744
C            1.00135491120547       -1.15459945808924       -0.00046079843205
C            1.43441908226532        0.26839839337325       -0.00004760150708
N            0.58694019757337        1.27810464187925        0.00023467416345
C           -0.71551710773493        1.04369807433471        0.00026649943790
C           -1.49287959426957        2.21902495255379        0.00060352525537
C           -2.86185861294380        2.40185495034733        0.00088456224712
N           -3.85717497676080        1.52381177604614        0.00066108024892
C           -3.75475431027161        0.22482908097608        0.00017702117092
C           -2.63074436565207       -0.62336241850721       -0.00009114065767
C           -1.28063617880624       -0.32253397819694       -0.00007713669510
H           -2.87044324296429       -1.68212868984093       -0.00040111310371
H           -4.71790616508333       -0.27726619656075       -0.00006685400876
H           -3.21761655425348        3.42708461057996        0.00131395406022
H           -0.88276045344452        3.11417317817999        0.00075861117968
C            2.82752292724000        0.26344399566231       -0.00011401231401
C            3.67116769020175        1.37683410416372        0.00006947748939
N            4.37756947195679        2.28264060225953        0.00099692544560
C            3.24908414656083       -1.10060629415114       -0.00042098717372
C            2.15962647143475       -1.94741498347743       -0.00067042018922
H            2.18411052275288       -3.02077486786461       -0.00100339964321
H            4.28106938258766       -1.40420884846290       -0.00047718314210
