28
 energy: -50.676262656756 gnorm: 0.000761639972 xtb: 6.6.1 (8d0f1dd)
N           -0.75476217181080       -3.70442415982801        0.31847732324800
C           -0.69741475546713       -2.56169435659783        0.21411525207098
C           -0.67408388164381       -1.16015117767833        0.08828467654232
C           -1.86994110112209       -0.42792709655909        0.04055767946177
C           -1.76341293441005        1.04732759423834       -0.15736900846713
N           -2.98104020112522        1.60077598839556       -0.23068593279949
C           -3.84229554919620        0.58514285042626       -0.08775898671760
N           -5.16270857713404        0.80038315147051       -0.10858825096316
H           -5.81237284108469        0.04133006409294       -0.01427830224050
H           -5.49429120075946        1.73911378181403       -0.24312442656969
C           -3.21030239909919       -0.69213789371564        0.07986098572049
H           -3.71003716300877       -1.63275150392371        0.20268233240910
N           -0.63203346714247        1.68613265833621       -0.23240110717395
C            0.52459688569289        0.98931693597249       -0.12690367540194
C            1.63497522728581        1.80261324617856       -0.07958402483974
C            3.01367496796942        1.50349892045561        0.05105838780206
N            3.84584157743040        2.58173611205342        0.12417868805252
H            3.45434231361099        3.49454439017440        0.27043258436557
H            4.81358749195585        2.44683019499624        0.35571657296052
C            3.57652337014351        0.24291669928648        0.04201985498594
C            2.90495628384122       -0.99737783105844       -0.07148914205404
N            1.62305023889921       -1.27096123361061       -0.04648085370870
C            0.55111825772305       -0.48467821834560       -0.02221895283843
N            3.67985366499870       -2.11449486940390       -0.13142949327297
H            4.66135934793340       -2.05833989742130       -0.33093002324741
H            3.19895285365999       -2.98624582551746       -0.27186451173428
H            4.65541124455041        0.18753794792183        0.12210838251244
H            1.38772932580916        2.85709933344706       -0.12099455860289
