30
 energy: -54.917223673126 gnorm: 0.000583811169 xtb: 6.6.1 (8d0f1dd)
N           -1.56848512930108       -3.86308246747982       -0.14128024626088
C           -1.33107928547791       -2.73856527124812       -0.09383549153604
C           -1.06988127981007       -1.35730725032056       -0.03934774817204
C           -2.13493641313610       -0.46338918558597       -0.00653723290013
C           -1.80927152570945        0.99121438925571        0.06741809375903
N           -0.56269831926484        1.44585287588682        0.07779641750930
C            0.45008354273165        0.59673996935673        0.03179836521438
C            1.70644502192492        1.24241026530586        0.00518290489498
C            1.62059270412444        2.65356071907413        0.01924766297132
N            1.65285557884942        3.80275509237572        0.02748792656850
C            3.02365287272557        0.71713441060088       -0.04389671333488
N            3.42960262781923       -0.54319476526811       -0.00041489252069
C            2.69287697838182       -1.63733964189897        0.04617556834900
N            3.42579981677276       -2.77446752856268        0.14096001277244
H            2.99325814339390       -3.67868691998054        0.09573488286102
H            4.42631653842786       -2.69525162215784        0.10974912364833
C            1.28913761349816       -1.79865736617365        0.00731025447241
C            0.26820355701880       -0.86981364558943       -0.00574993389548
H            0.96655166026011       -2.83514145579311       -0.00297874322787
N            4.04757760779448        1.59714946365772       -0.13824826440744
H            4.98329507015895        1.23392000512194       -0.13390087863279
H            3.88211760237288        2.58807555060993       -0.13701678799259
C           -2.99468258706360        1.67907897632126        0.10752702570534
C           -4.04576680765723        0.71601838592794        0.05800256670793
N           -5.35288286730669        1.01877340573202        0.07833213048911
H           -6.04535099533079        0.29216330043844        0.03733837723695
H           -5.65149388257710        1.97656145303603        0.12666406761390
C           -3.50995770443730       -0.58676056978894       -0.01188796640638
H           -4.07520059082870       -1.49827870176848       -0.05865881727988
H           -3.12055154905415        2.74182929931511        0.16383048749284
