28
 energy: -56.271246268852 gnorm: 0.000785233476 xtb: 6.6.1 (8d0f1dd)
N           -0.35860010798285       -4.14708833452724        0.85192432734784
C           -0.38818841657401       -3.02414606008526        0.61534363651737
C           -0.45665433645619       -1.64334127724481        0.34899787721696
C           -1.70302132627452       -1.00467874160140        0.24972012321298
C           -1.76294167657874        0.40125409176788       -0.21987577211972
N           -3.01797577582836        0.79810884250732       -0.37762527305620
C           -3.78172691456424       -0.26366152855629       -0.02514143903464
N           -5.10834175417111       -0.17618222866004       -0.06700348842619
H           -5.69023704330264       -0.95561926584009        0.18485650629158
H           -5.52251410986419        0.69314998741877       -0.35928066519399
C           -3.01084552673300       -1.40293516370073        0.36216284455615
H           -3.39457094585494       -2.35532467166081        0.66664609803384
C           -0.59382994542862        1.14181294725009       -0.38483312400401
C           -0.69086096355510        2.46684987840426       -0.86072702674150
N           -0.80449309101497        3.50378720529296       -1.33719053356196
C            0.65014436479914        0.54366040886390       -0.08422691761787
C            1.75621821273131        1.32112322854287        0.27815937348773
C            1.58752713180336        2.70438258053807        0.54026703641769
N            1.55873268252822        3.81017273218026        0.84252875746260
C            3.05572487307815        0.86026140574225        0.63708705276348
N            3.65264662379140       -0.24710425703783        0.34632341591476
C            3.05784330859150       -1.28792486324856       -0.27838856399443
N            1.80544352602435       -1.64840320012750       -0.16628484150107
C            0.71735055595164       -0.93506633401250        0.06224558393510
N            3.88327690004140       -2.11425395605529       -0.94063811747511
H            4.87464544070165       -1.96669964793824       -0.86821662124647
H            3.52644784798460       -2.99672451253610       -1.26386926102778
H            3.67073829824927        1.56609674012943        1.18846925864472
