31
 energy: -54.637726852977 gnorm: 0.000831281359 xtb: 6.6.1 (8d0f1dd)
N           -0.72617197338779       -3.99940802085159        0.22326819043454
C           -0.67059579696348       -2.85132334468521        0.16828980561240
C           -0.62387814331369       -1.44796284547005        0.09977450587498
C           -1.82914955841582       -0.75391400099745        0.06917215378628
C           -1.81916259620064        0.72296060187632       -0.01248412161622
C           -3.12194111031816        1.14839013645780       -0.03969210967210
C           -3.95231425620951       -0.01212165908221        0.02383872704313
N           -5.29645372116704        0.01416977413285        0.01367518163084
H           -5.82263644050156       -0.83859967698780        0.07975560902485
H           -5.78723088404487        0.88959175688713       -0.01767148064696
C           -3.15275736084889       -1.16560233419664        0.09100452646750
H           -3.50634292067347       -2.17716322121261        0.14676364551094
H           -3.47077570434144        2.16155505391908       -0.09629738619629
C           -0.58679434748059        1.39368115423604       -0.03083386616558
C           -0.56137313815299        2.80081403105841       -0.07710222614279
N           -0.57134918502327        3.94898873709537       -0.11253112349506
C            0.63641690119666        0.70441977765652        0.01151253281264
N            1.69520033437381        1.50137818276923        0.03649287436998
C            2.98673452333261        1.26320315702813        0.03841865085509
N            3.72961335390740        2.40589873425931        0.05365007777149
H            3.22017104768844        3.26122055635454        0.19772031927256
H            4.70829210854264        2.38250740216443        0.27420248822402
C            3.68426994934274        0.03958097024622       -0.03945768834340
C            3.14197410627937       -1.23200610543983       -0.05547762337782
N            3.99876023804481       -2.29571344778032       -0.08243989576611
H            3.63389737895900       -3.21628696868338       -0.25093236327587
H            4.96934603626185       -2.14022547249909       -0.28822958298528
C            1.76653447630638       -1.55961770637999        0.01340841345148
C            0.63326059028917       -0.77469974613511        0.04884131250729
H            1.57830962566450       -2.62907951504637        0.02673088510830
H            4.76410293055418        0.11108561020621       -0.08465381557494
