21
 energy: -40.604294666339 gnorm: 0.000902746772 xtb: 6.6.1 (8d0f1dd)
N           -0.84464636276276       -3.49771214193573        0.75353783363126
C           -0.75335781357579       -2.37352734526300        0.54609646431697
C           -0.60605652664090       -0.99394950974148        0.29132549192691
C           -1.72067818475190       -0.17668181513632        0.12374433477388
N           -3.02212389746180       -0.42976906264903        0.17635543570653
C           -3.59034406080802        0.75030814632474       -0.13269029379865
N           -2.77863069919766        1.77539333680607       -0.37884494708436
C           -1.55009113301653        1.25908775267111       -0.23456990507547
C           -0.30608738075037        1.84078463056401       -0.26599976353098
C            0.81711565172716        1.05604328319888        0.03229878911843
N            1.92572130595625        1.68993926579577        0.34308199433941
C            3.14265283696965        1.25152009606927        0.48901732844029
N            3.69160719063432        0.22131870196668       -0.12728640512323
C            3.05814241946684       -0.84748135276668       -0.52495061397576
C            1.75042932994713       -1.25162085710496       -0.20397896331770
C            0.67808267108527       -0.43180475316014        0.12658703652179
H            1.52069220741397       -2.30069732867666       -0.35754727963699
H            3.66550922381030       -1.53659343477542       -1.10249216951819
H            3.82427146022237        1.90278587337488        1.02499263661396
H           -0.18166980418456        2.90284435811291       -0.40610073963841
H           -4.65919297858330        0.85428662072396       -0.17739504499421
