34
 energy: -56.973590058707 gnorm: 0.000757223037 xtb: 6.6.1 (8d0f1dd)
N            5.55039980873597        0.30887335897693        0.12575316423027
C            4.40391248926639        0.19862644921334        0.08237175261836
C            3.01948884204485        0.08102676914616        0.02405338897666
C            2.30601348430104       -1.07034977949552       -0.30581755219814
N            2.84602128332943       -2.31894328383882       -0.60157518635423
H            2.45336228750852       -2.74688733727994       -1.43089360706431
H            3.85767640803173       -2.29460649874746       -0.64634076410665
C            0.91931163989424       -0.75655490632332       -0.20534343055764
C            0.81601807715838        0.65479905476654        0.11244047124011
C            2.09470460597319        1.14757522635845        0.29446286844644
N            2.47891223286804        2.45181791062348        0.63166899300267
H            2.04046749623860        2.79845005848230        1.47696871589275
H            3.48618318939887        2.53328785091978        0.70376519742734
C           -0.45724603953353        1.28025818100245        0.05103633492240
N           -0.50382487943850        2.68002462621074       -0.03332351199015
H           -1.22150467928287        3.11693525763034        0.52770691175795
H            0.40596628423046        3.09713603884981        0.10389073162335
C           -1.58319923106121        0.49576486725790       -0.03934930103152
C           -2.86790946885279        1.07010446059714       -0.43781024324665
N           -2.80245335209522        2.06932024663311       -1.34423967042549
H           -1.90544578279941        2.46844350885856       -1.56928967546092
H           -3.64170117669691        2.53957669043951       -1.63522613306877
C           -4.10415138370186        0.70065180728010        0.04654410463918
C           -4.34499093910983       -0.35263997080498        0.94709004656016
N           -3.66502087995398       -1.43860374538898        1.12268767462755
C           -2.50589944036538       -1.75757170049425        0.52528397948761
C           -1.47947557680579       -0.96549021376656        0.07181915999073
C           -0.19544625124069       -1.57000889625749       -0.21627945350800
N           -0.05919745258103       -2.90678405699193       -0.45102492073958
H           -0.84839900982504       -3.50780306722937       -0.28483054513747
H            0.84505099142300       -3.29834204820178       -0.23614733345372
H           -2.35933683572289       -2.83349416687094        0.55934134277992
H           -5.26631773195833       -0.31055474924014        1.52278160066392
H           -4.95053991827803        1.31673777898608       -0.23157113544296
