28
 energy: -57.046311238094 gnorm: 0.000906526253 xtb: 6.6.1 (8d0f1dd)
N           -0.29942677489707       -4.48583372883299       -0.81691835868531
C           -0.37288542848324       -3.36798075634930       -0.57819533593286
C           -0.44137460820984       -1.98106877878898       -0.31920335188724
C           -1.62861849297997       -1.29810049713424       -0.30962239927235
N           -2.88612586073676       -1.77649549188734       -0.52849223874076
C           -3.69865323330711       -0.78201120496490       -0.29113293280113
C           -3.02594446703195        0.43366892720455        0.10252773622224
C           -3.65546919269166        1.63816619595182        0.42070205754844
N           -4.20763946823005        2.61022351433366        0.68336653660616
C           -1.67707190612384        0.12008556082411        0.07884421925793
C           -0.47980202045725        0.83994581769050        0.25751496814800
C           -0.54397913485039        2.21222439642117        0.58797141418410
N           -0.61259304554710        3.30128336623562        0.94000424543554
C            0.74432769859036        0.17883856106059        0.15269252084167
C            0.75881779520015       -1.29693617506436        0.09946157709758
N            1.72223566356578       -2.06158744170337        0.49572279388575
C            2.93072618625581       -1.77872687620947        0.94865089409619
C            3.71014210850537       -0.69562997907154        0.63673091883285
C            3.28822419333388        0.49377756596825       -0.00987271028361
N            4.25422601193206        1.33421811916966       -0.43419784716010
H            5.22196756817163        1.09755362057316       -0.30599650613063
H            4.02298318249613        2.23163991096121       -0.82743098079585
C            1.93958010147688        0.89806558511543       -0.13105778093589
C            1.76472675615412        2.16927535571228       -0.73208530057331
N            1.71750274454047        3.16401615837369       -1.30374201036852
H            4.76461655504226       -0.75613557465033        0.87225435391237
H            3.37027384455556       -2.59108468520254        1.51566733227631
H           -4.76290880357552       -0.89834492333608       -0.39178604977787
