26
 energy: -52.037580780166 gnorm: 0.000309413079 xtb: 6.6.1 (8d0f1dd)
N           -2.01043693238233       -3.75716697104273       -0.00611773655769
C           -1.59805395014219       -2.68630941378182       -0.00889404224246
C           -1.10708268107367       -1.36319483285532       -0.01010862204588
C           -1.99930898398366       -0.29687181709817       -0.01697619885725
C           -1.44641962647323        1.08854107755149       -0.01790810099132
N           -2.46364887960746        1.93441715365899       -0.02401027273915
C           -3.54844427524884        1.12712002112384       -0.02676574054710
N           -4.78162006871330        1.61193333479014       -0.03300316570700
H           -5.55889788633338        0.97480975526719       -0.03478961991413
H           -4.91523563425121        2.60796868568354       -0.03573932317649
N           -3.31783249311103       -0.21657647180693       -0.02271794939448
N           -0.16063376583851        1.34892239917593       -0.01342507437345
C            0.69914451968447        0.32712716959269       -0.00753654043842
C            2.03237153073033        0.76972620100803       -0.00526585840483
C            2.16416685837469        2.18192233264628       -0.01028509469725
N            2.38749170488345        3.30805743746441       -0.01353016271650
C            3.26391195968696        0.04788849640039        0.00060872454948
N            3.45796996946453       -1.26479438870958        0.00895473171812
C            2.54824639940257       -2.20970467441059        0.01085217260385
C            1.16058218191877       -2.17035638040430        0.00385746329375
C            0.27956054855446       -1.08356095956133       -0.00464973939315
H            0.67844211437631       -3.14148276524244        0.00588251204875
H            2.99251922782603       -3.20098196583106        0.01884302643541
N            4.40928953860420        0.75499695289789       -0.00151247144123
H            5.27414560863176        0.24250012653702        0.00360768069766
H            4.40896119432033        1.76065394914643       -0.00657602050919
