32
 energy: -53.549266861754 gnorm: 0.000794372824 xtb: 6.6.1 (8d0f1dd)
N            5.77049339925281        0.12313945310132       -0.01717503110360
C            4.61830185138369        0.14039120074790       -0.01698943970853
C            3.22705512925622        0.14624306052846       -0.01475922055571
C            2.40498934597186        1.31412665027726        0.01411683690010
N            2.88544970683619        2.60443470089054       -0.02906928950661
H            3.84554948061715        2.71827281571564        0.25772476606088
H            2.25999759856564        3.31623718299763        0.31286305750843
C            1.07721675396267        0.89688353651281       -0.00833065302245
C            1.06426890796586       -0.56055656143482       -0.01374243788920
C            2.41186924561456       -0.99577016640148       -0.03927136456163
N            2.85971864300848       -2.31527036313852       -0.05709153555201
H            2.40702170914561       -2.89102588885524       -0.75520336506790
H            3.86756622833734       -2.37149878939121       -0.13856520831947
C           -0.12303906544193       -1.25984758707125        0.08337509636416
N           -0.08199864155321       -2.62064343974101        0.24125582677827
H            0.80633013647456       -2.97747307368205        0.55953481470900
H           -0.88885922237442       -3.07409393199807        0.63589829674881
C           -1.38073343660671       -0.55203491303801        0.00243661776248
C           -2.51651095506527       -1.30630110971565       -0.17977215813435
N           -3.83441496553653       -1.04877183277754       -0.16839126026882
C           -4.41208661469237        0.11800558255133       -0.04081992800607
N           -5.75828785760538        0.06006864807597        0.05624734289516
H           -6.19672207652034       -0.84326805192256        0.01657166585795
H           -6.31975898924883        0.88937983333860        0.11391829680984
C           -3.82988008751939        1.42924040022318       -0.01514116182838
C           -2.50644512834550        1.73636114964986        0.01876736435701
C           -1.34416029406487        0.92431218187561        0.03136408094684
C           -0.13179693319933        1.58558502120009        0.03334407022508
H           -0.12549478919956        2.66721445549007        0.05705228488707
H           -2.28637441299242        2.79900560175424        0.04281851490310
H           -4.53716133042477        2.24859067700291       -0.00351897647719
H           -2.36990252310181       -2.36726019626587       -0.36553049571235
