24
 energy: -43.783759190905 gnorm: 0.000603141297 xtb: 6.6.1 (8d0f1dd)
N           -0.24578382320878       -3.71213206092344       -0.00226284385711
C           -0.17783375132514       -2.56545505449573       -0.00119412689040
C           -0.15523694915921       -1.15577529550524        0.00028208648718
C           -1.37665680789748       -0.46528517438492        0.00232294242187
C           -1.32077321634654        1.02639967104176        0.00384965330725
N           -2.54666797735178        1.54057387186282        0.00569301321679
C           -3.38294877658245        0.48445572602790        0.00548980036480
N           -4.70369093455698        0.66937951327692        0.00701685218411
H           -5.33838091723028       -0.10881279516595        0.00729291442745
H           -5.05581764607503        1.61113993301047        0.00862811458502
C           -2.70844155014968       -0.77838196304526        0.00344051353630
H           -3.17375212497716       -1.74412524546486        0.00292273015155
N           -0.20083854989267        1.70229873172176        0.00337416397844
C            0.96378747900565        1.04180758238092        0.00146013148238
C            2.06892961460102        1.89446520345989        0.00119637195746
C            3.43827048290948        1.62361739677304       -0.00052719714360
N            4.09966538810356        0.49419321758658       -0.00239885915145
C            3.56684532860301       -0.72058809984924       -0.00311461484819
C            2.25507334821487       -1.15018381874794       -0.00220526473913
C            1.04520082234815       -0.42850883646710       -0.00018761351578
H            2.12794894631754       -2.22826289317098       -0.00320283673948
H            4.32451347202742       -1.49892404999672       -0.00471666978328
H            4.09265116600191        2.49116529142479       -0.00031265869134
H            1.78790639662042        2.94018418175056        0.00257967005915
