27
 energy: -46.940548814603 gnorm: 0.000538702734 xtb: 6.6.1 (8d0f1dd)
N           -5.38947597720617        0.03466061082891       -0.17496721216920
C           -4.23934714542871        0.01055266841291       -0.13289105820492
C           -2.84731600700152       -0.01186295139775       -0.07716060352378
C           -2.05261386476215       -1.15065383646484        0.02810929137250
N           -2.48148402270166       -2.43416921007701        0.15643042267052
H           -1.82474984628216       -3.17423180567139       -0.02078779940415
H           -3.44856227922769       -2.62594222200940       -0.04717105745755
C           -0.68090585197360       -0.71653042947678        0.05482818665795
C           -0.68594043612749        0.74276050435286       -0.03999539697517
C           -2.00798873893364        1.16032145694779       -0.11732894919239
N           -2.48608074100345        2.42710334656322       -0.28326023602842
H           -3.46461008459950        2.57732285247162       -0.09897697106021
H           -1.86807762144560        3.18994848815863       -0.06520455367583
C            0.53268373810678        1.41963902501643        0.04127067124179
C            1.72897314309219        0.73686238658620        0.07979941489346
C            2.92762232590513        1.46100433838318        0.39305183103727
N            4.15656430684851        1.15468213287959        0.18248369696236
C            4.56921262472057        0.01426671193941       -0.42228933215276
N            4.11997335136658       -1.17827134194837       -0.30196153896193
C            2.88209288654911       -1.50778997364671        0.12634157906045
C            1.73966624112791       -0.73574241653598        0.09626081071013
C            0.48271904900539       -1.40636338757584        0.15652902502133
H            0.49353559012027       -2.48557363226483        0.23521192944939
H            2.78140538364844       -2.56775531116240        0.33354870194694
H            5.48382308867628        0.13311731054343       -0.99663550451227
H            2.78597111727848        2.43124480127046        0.86620825688942
H            0.54817765204755        2.50130219877703        0.06882134660556
