27
 energy: -46.950523226706 gnorm: 0.000700500737 xtb: 6.6.1 (8d0f1dd)
N           -0.27053776629072       -3.49758040880475        0.80145648327929
C           -0.32424173664084       -2.36417938540096        0.61115360253408
C           -0.39429827054910       -0.98100080842952        0.37523733426149
C           -1.63470252925909       -0.37994216914625        0.19215747133704
C           -1.70597448960242        1.07264240369304       -0.10214860155005
C           -3.03173477033168        1.38877013950668       -0.27107150841346
C           -3.79120211600649        0.19230542001889       -0.09176204202061
N           -5.13045102921073        0.11791326235145       -0.19234760814682
H           -5.60374963219004       -0.75046651529014       -0.01757868250103
H           -5.67532838215182        0.94611603214902       -0.35196804866075
C           -2.92852612083323       -0.87888199351588        0.19127660561107
H           -3.22140539129788       -1.89557380376258        0.37112664129844
H           -3.44504154441730        2.35451714346401       -0.49145415974347
C           -0.53985591210585        1.83641174700103       -0.08060435889784
C            0.69320318862253        1.26121890040573        0.16168897656610
N            1.70575812684024        2.10406886944694        0.40253936197589
C            2.97577244613052        1.87781166848118        0.49082599956239
N            3.72935215627846        0.86311192931462        0.07656704628442
C            3.28533113345207       -0.34350102965367       -0.19873199420046
N            4.19558963967229       -1.18201254390971       -0.74684292660818
H            5.13553142178549       -0.84517896901169       -0.86058264648407
H            4.00444171810034       -2.16209492546942       -0.84902403071234
C            1.99080224512093       -0.88833001139800        0.06765609600376
C            0.80441394282563       -0.22018193323037        0.25083021086593
H            1.93268764514591       -1.97133114895440        0.02349464756382
H            3.55861354602309        2.71479609463693        0.86893600148455
H           -0.58572828741353        2.90907520890312       -0.19085468608339
