25
 energy: -47.515719233764 gnorm: 0.000790558969 xtb: 6.6.1 (8d0f1dd)
N           -0.87108281653276       -3.56775103659004        0.90364621162940
C           -0.68620486200975       -2.48246799579032        0.57645388732512
C           -0.50027530420997       -1.13629113888001        0.21388789038513
C           -1.61494479482875       -0.26360919490876        0.16140740842814
C           -1.45587138504206        1.11124423522134       -0.38162538048688
N           -2.65090799499755        1.73478634345170       -0.44564292759522
C           -3.53906527177389        0.85629580833048        0.01604119941952
N           -4.83878287268009        1.14946860229118        0.09344869761573
H           -5.15047709834521        2.05086728036575       -0.22405734946536
H           -5.50386882169020        0.46952981665184        0.41511275808757
C           -2.94718440202085       -0.40401410581823        0.41133700056114
H           -3.47482600956649       -1.25076525539261        0.80265285940689
C           -0.22012855665079        1.61742763890135       -0.67182646511578
C            0.91018952706786        0.81904773432961       -0.38434587376548
N            2.04691346644545        1.40929088072329       -0.15360755649536
C            3.22695853285446        0.84206061084994        0.14755278290060
N            4.04143682097433        1.59268600341488        0.90840141527078
H            3.76144698646737        2.52397443584793        1.15911919286209
H            4.98946491641941        1.28894292017445        1.04173057471153
N            3.73021599208228       -0.27802238674873       -0.34736458447340
C            2.95352419971759       -1.24591305948672       -0.81014014469387
N            1.70158022625000       -1.49519982454539       -0.56974201991492
C            0.73975784262940       -0.65838169580531       -0.18859899155911
H            3.47628048328121       -2.01769634476301       -1.36653550689490
H           -0.08437830474080        2.64268910207563       -0.97490861394339
