24
 energy: -43.774446497405 gnorm: 0.000946132254 xtb: 6.6.1 (8d0f1dd)
N            0.65566992931610        3.46404483011321        1.17043517313368
C            0.71547143489561        2.35894659615767        0.86510001867358
C            0.77088220010596        1.00145395211812        0.48533842304479
C            1.93939831531533        0.38623596997499        0.14503514765630
C            1.90827106477087       -1.05230943934006       -0.23863448738519
N            0.80240575270729       -1.80286931511697       -0.12921989242661
C           -0.31987325295796       -1.23946498196656        0.20996645460079
N           -1.32345417942723       -2.06040107200032        0.56258904184292
C           -2.58231359348957       -1.83324249394172        0.64453621140757
N           -3.32663354195511       -0.87015224122059        0.08487989894807
C           -2.89460653356680        0.31717226686119       -0.23382146567440
N           -3.74290433835408        1.10740563208775       -0.91747537244628
H           -4.64104143193077        0.73409650056021       -1.17200370491329
H           -3.52510572461153        2.06598954081046       -1.12074463523228
C           -1.62409961088967        0.90804738843959        0.13625809718691
C           -0.45889678485591        0.24190158790253        0.34735980576213
H           -1.59060605489412        1.99351573159310        0.12205333098789
H           -3.17017297015450       -2.60518701384720        1.13217752824564
C            3.18618521550361       -1.40753024072788       -0.55966189128689
C            4.02490196974760       -0.25059709662149       -0.39064246489541
C            3.29460822357670        0.81802805727693        0.04051033482122
H            3.64395483826082        1.81073451837089        0.25282883301928
H            5.08423883448723       -0.25088534078596       -0.57802124713336
H            3.52247597520012       -2.37591539479822       -0.87315391853693
