28
 energy: -51.468649210289 gnorm: 0.000672357559 xtb: 6.6.1 (8d0f1dd)
N           -0.98840191236650       -3.76685890466874       -0.51453624222339
C           -0.67930840587727       -2.66529969859574       -0.40134479595925
C           -0.29490921250157       -1.31765118332500       -0.27126429740304
C            1.05298626979428       -0.98769292243415       -0.17976164333386
C            1.38750067099279        0.44215465449870        0.05398448420171
N            0.49531240140235        1.40945732044411        0.02483860196797
C           -0.78335523680883        1.11803803706697       -0.16446098592813
N           -1.53205822523911        2.17522945566150       -0.41793510046306
C           -2.82305989509245        2.32699996943718       -0.48754654583693
C           -3.85512979077698        1.48531024693146       -0.08608488401735
C           -3.75120172900832        0.12481742495799        0.21348709254870
N           -4.86956286569247       -0.52979155439973        0.61759555283355
H           -4.86703871275125       -1.52972189962183        0.71199432744078
H           -5.75185056410893       -0.05128136217485        0.64696622101572
C           -2.58711052717952       -0.65607799422384        0.05405823269557
C           -1.27341444391958       -0.28949461763512       -0.16432787020129
H           -2.75077470480910       -1.72515689479562        0.16314607555288
H           -4.84584655158893        1.91861649874747       -0.03320965570374
H           -3.11356140802684        3.31140787394064       -0.84453459274322
C            2.76792584085176        0.51314197086166        0.21507392790115
C            3.57445128612228        1.61877927684437        0.46754016042148
N            4.31445386985895        2.47429409183188        0.67984871525709
C            3.28628796555365       -0.82196730852032        0.05852445757124
N            4.58768771148775       -1.12247189372129        0.14131474373250
H            4.90600070546193       -2.06712628376460        0.01562098433623
H            5.25798045992492       -0.39310447133534        0.31825002199225
C            2.23068612353703       -1.71588650634681       -0.18392771692310
H            2.32822555906115       -2.77432864776226       -0.33521889393343
