27
 energy: -47.749297536954 gnorm: 0.000948183222 xtb: 6.6.1 (8d0f1dd)
N            1.01914562400991        3.75284556349294        0.00674702420835
C            0.62694272942054        2.67352173623706        0.00797211592562
C            0.11580491636535        1.35780674108479        0.00987790026399
C           -1.24942070482664        1.16419230292692        0.00638516340217
C           -1.74362729644387       -0.23477086529454        0.00131754969286
N           -0.94126745735502       -1.27862669560339        0.00359884603532
C            0.37583992232220       -1.10527239274305        0.00852682840803
C            1.08287366618134       -2.32112320247911        0.01229764117118
C            2.43326807260311       -2.59375362906654        0.01090542460016
C            3.50951050973363       -1.71832848288381        0.00462583528363
C            3.49602062394665       -0.32327407987467        0.00425604187090
N            4.69522122709618        0.32094065562683        0.02966528032231
H            5.54851331934334       -0.19764893271384       -0.06902989902315
H            4.73572344013575        1.31927640675011       -0.06674745113112
C            2.35199832860507        0.50088793277878        0.00974528736945
C            0.99988044626669        0.22626054019967        0.01019776058790
H            2.59103263504348        1.56156665740426        0.01377516538940
H            4.49319658711856       -2.17242330350979        0.00188632028232
H            2.69596080122396       -3.64384383508983        0.01209731350187
H            0.41525350749498       -3.17368178444819        0.01463963535975
C           -3.13759620153137       -0.16804678095219       -0.00672038332549
C           -4.03101665616911       -1.23896347657733       -0.01686597344426
N           -4.78275531406173       -2.10896981424262       -0.02371136524108
C           -3.49636100623065        1.21236293064554       -0.00499670376375
C           -2.37064628501889        2.00929225241407        0.00283984655640
H           -2.34553770345845        3.08282875854425        0.00541413492199
H           -4.51372414981503        1.56248927647374       -0.00979696882478
