29
 energy: -55.217441084463 gnorm: 0.000566578359 xtb: 6.6.1 (8d0f1dd)
N           -0.71556646806492       -3.99030968182240        0.01034302951220
C           -0.69371149906483       -2.84140401923769        0.00707220553481
C           -0.65974026393517       -1.43437052710452        0.00365500329261
C           -1.85960133783674       -0.73862367475785        0.00176567529637
C           -1.85952273705297        0.73881947593089        0.00117691233336
N           -3.12114836035962        1.15358528714997       -0.00051638703149
C           -3.83199052118354        0.00020188751399       -0.00128929949839
N           -5.16190464605128        0.00027453367472       -0.00337577792670
H           -5.65204792155074       -0.87595503505071       -0.00529805341600
H           -5.65194648701958        0.87655885144120       -0.00599719060817
N           -3.12127225269630       -1.15325496373068        0.00040532145064
C           -0.65958369426431        1.43443519447695        0.00254517748410
C           -0.69338741787529        2.84147145943588        0.00494301091069
N           -0.71511488881600        3.99033525936792        0.00713760375562
C            0.58083350202399        0.73433549684766        0.00134505789808
C            1.72659799186471        1.51374690553110       -0.00040168803633
C            3.09911554796789        1.18269973807310       -0.00354315390944
N            3.69278453554544       -0.00020543084272       -0.00496248612346
C            3.09898908641232       -1.18304562101377       -0.00283128260887
N            3.96809308149696       -2.21944076937061       -0.00448783520413
H            4.95161389375289       -2.01747005003124       -0.01035754478822
H            3.65054283035729       -3.17113702495676       -0.00695765471780
C            1.72643593387791       -1.51394436721184        0.00063899650206
C            0.58075488443211       -0.73440909169754        0.00188845804950
H            1.54150831303798       -2.58274627521001        0.00168106178109
N            3.96833309739063        2.21899928808934       -0.00574364164134
H            4.95182732725816        2.01691763642339       -0.01141736799342
H            3.65088327682464        3.17073252835927       -0.00877353358624
H            1.54178077032836        2.58256906562279       -0.00013672791123
