34
 energy: -56.996831852203 gnorm: 0.000345811879 xtb: 6.6.1 (8d0f1dd)
N           -5.83020876609579       -0.35592063491052        0.48606384119440
C           -4.68864972810793       -0.28970452864522        0.33988143402218
C           -3.30914230278033       -0.19269437716147        0.19491588758674
C           -2.38724093707722       -1.28253036176667        0.30775399828831
N           -2.76060205825995       -2.60717932597321        0.45463095668540
H           -3.69832617998213       -2.73928926253955        0.80471673538143
H           -2.07660940188378       -3.19470127265722        0.90647355559764
C           -1.10720676368001       -0.77091615186023        0.15286114931982
C           -1.21842842566013        0.65936369768219       -0.08216844276614
C           -2.59815263162429        0.99094838258821       -0.03491849611160
N           -3.15061767654870        2.26134650559141       -0.20850964244973
H           -4.15726113214933        2.25012411503763       -0.09194076249470
H           -2.72904985649986        2.96888979076817        0.38121774998037
C           -0.10087770323526        1.42610218250614       -0.34755394693779
N           -0.24660786940779        2.75196602024137       -0.67461841466819
H           -1.16977168584656        2.99715010211331       -0.99948749137635
H            0.50724961576919        3.18586286237616       -1.18183655992043
C            1.20630752770431        0.83883045220216       -0.18175980576065
C            2.28281380180866        1.68841843029782       -0.00017036716378
C            3.60208230893588        1.40366968374314        0.36910961466390
C            4.19490274114715        0.15576295398710        0.43908226403421
N            3.75384420402978       -0.98075120820140       -0.13258671237254
C            2.53558944984446       -1.28670443665394       -0.45839012054092
N            2.41883056722936       -2.42716889987861       -1.17425463720637
H            3.26044671364377       -2.89203438177240       -1.46711205917500
H            1.53410633674484       -2.70072748913522       -1.56073568642281
C            1.27996742535117       -0.61766218812346       -0.12780386689901
C            0.15216592167590       -1.37728655972890        0.04581955118053
H            0.22513927579587       -2.45455115769907        0.11257630549445
N            5.41095526046375        0.01563873090412        1.04195781605040
H            5.95376538091945        0.83495134176156        1.24920974424520
H            5.89987359362512       -0.84862631761108        0.88614401954327
H            4.21095547108421        2.24536707409769        0.67345946567937
H            2.06086720355923        2.74815029750752       -0.01434334837818
