27
 energy: -50.963724548219 gnorm: 0.000865954619 xtb: 6.6.1 (8d0f1dd)
N           -0.75309168459401       -3.60185563061879       -0.68598534258351
C           -0.73057003412171       -2.47343142115079       -0.47809536769913
C           -0.70409663602182       -1.08556289129663       -0.23621557017279
C           -1.86309534046466       -0.32639334467340       -0.15833872120696
N           -3.15012672788613       -0.62087426184221       -0.25120391635590
C           -3.76124899354487        0.56022060744755        0.04223466766588
N           -5.08813822165099        0.65927681638173        0.04706901612678
H           -5.51267880786762        1.53574250656143        0.29062454723640
H           -5.63889421101234       -0.15492340798925       -0.15766607556976
N           -2.96813152860890        1.60998995103633        0.33346772764457
C           -1.73929472709887        1.11507423626706        0.21002015009828
N           -0.59643032292348        1.73477021741869        0.35203104157399
C            0.53447832443537        1.02700037170731        0.18286604327069
C            1.67112428380679        1.80907891828750        0.08433891418768
C            3.02903239476501        1.46855037945644       -0.09805985142733
N            3.88045792750184        2.50859407988589       -0.29867625713324
H            4.85883313106202        2.34755949665143       -0.45196061441907
H            3.52688466664377        3.44422031529277       -0.37251281513770
C            3.56850640564457        0.19211110811457       -0.01926933298321
C            2.86828430440009       -1.01027518617115        0.18806180699864
N            1.57598569412977       -1.24364250838629        0.06825430223980
C            0.53447902059343       -0.44136775828025        0.00590118040791
N            3.58234073995237       -2.12674598714492        0.47876444680170
H            4.58277760133485       -2.13930973150194        0.40221161562925
H            3.07890425995188       -2.99752100275492        0.47833382879231
H            4.64481673506915        0.10957444546931       -0.10840637251426
H            1.45350875090500        2.87063032633284        0.10786858982984
