35
 energy: -56.700584134157 gnorm: 0.000912377445 xtb: 6.6.1 (8d0f1dd)
N            5.88497503711088        0.02586237852860        0.14347192822959
C            4.73603735326162        0.10478615702013        0.08624555930538
C            3.34873115411049        0.17067316293195        0.02385747378532
C            2.58381359159960        1.33451952852055       -0.14613034404436
N            3.07722385601263        2.60554598540290       -0.37164559751110
H            4.03420457554845        2.74439608719676       -0.08253927405375
H            2.45893113940241        3.35772747563485       -0.10996359114007
C            1.22402862016082        0.94698880987801       -0.14747579419735
C            1.17277913158524       -0.49726542041673        0.04370006735606
C            2.47909289090414       -0.95838173982757        0.14111422840399
N            2.91266637590565       -2.28239937248648        0.34127582494042
H            3.92387456563197       -2.32119288287613        0.40509412222085
H            2.59541333686585       -2.91447554199214       -0.38537029218600
C           -0.07111786988788       -1.14485317219202        0.12094494954709
N           -0.04063733922357       -2.51675264113666        0.38770715341088
H            0.84615943709969       -2.78757071548425        0.79369789450346
H           -0.82659992772201       -2.85546779527319        0.92471929496522
C           -1.26679301090720       -0.42992399571242       -0.06485850893782
C           -2.48639366873547       -1.13343043334397       -0.33359727175265
N           -2.37285459966094       -2.41989024211910       -0.77642969483528
H           -3.19193706174200       -2.86566826059769       -1.15187324123076
H           -1.47522322792386       -2.74236669230161       -1.09775278855747
C           -3.80331672642188       -0.70892804991439       -0.17576126425731
C           -4.33367526293572        0.53068049988064        0.18954314593253
N           -5.68573464061376        0.59586594011984        0.36015750968349
H           -6.21839606753977       -0.25138038888165        0.44107795402727
H           -6.09080500415228        1.43622199262366        0.73078531398802
C           -3.62393467899277        1.73089290754796        0.26577492119927
C           -2.27458234654144        1.92338381315036        0.04553680295402
C           -1.20171566671623        1.04251856729288       -0.09247985306843
C            0.05570498812487        1.66362025664411       -0.18597668066809
H            0.09077286997830        2.74405169052686       -0.23837120404874
H           -1.98263609996291        2.96810245002168        0.03655785806986
H           -4.21365563183088        2.61687916610774        0.46486340962704
H           -4.54775919229184       -1.47563731697412       -0.36775238926031
