25
 energy: -48.298031618096 gnorm: 0.000340020548 xtb: 6.6.1 (8d0f1dd)
N            0.01478723743398        4.02962709223753        0.47804274608875
C            0.01921967621057        2.89201352855505        0.32380305498158
C            0.05089306273469        1.49556549467418        0.16037934767561
C            1.28127785103158        0.80536795216483        0.15600630276049
C            1.33016862570180       -0.64461190859452       -0.18330563683621
N            2.59104329168195       -1.06675772457579       -0.27051743348525
C            3.35582891086626        0.00640261980982        0.00287681081672
N            4.68346000761729       -0.08752125432433        0.00400569282317
H            5.10230956691080       -0.97760261811775       -0.20656591708437
H            5.26079528153669        0.70997904597134        0.20340467939426
C            2.58934421468525        1.18885282002615        0.27507520450158
H            2.98356664827719        2.15855875172641        0.50275270488994
C            0.16777996798915       -1.39404346838514       -0.27452448543598
C            0.18550139706180       -2.78353889781679       -0.50306944156566
N            0.17470838486726       -3.91184148753724       -0.70792892088880
C           -1.05732463057653       -0.73503265708521        0.01515866692593
N           -2.06176283216031       -1.37218156376531        0.51197032524281
C           -3.30901506983178       -1.02733015546568        0.76369467784871
C           -4.03988130969279       -0.08467832434219        0.06434776739302
C           -3.41627149792912        0.89554166909852       -0.72350507523658
N           -2.18832982485971        1.30846855532571       -0.61185440309751
C           -1.11049632332969        0.76913034490762       -0.09742090610416
H           -4.01690221066352        1.48223178222439       -1.41002717159031
H           -5.11878786278824       -0.10020376003365        0.11975599653117
H           -3.80086662997388       -1.67537737587892        1.47985187805037
