26
 energy: -47.233741735347 gnorm: 0.000639210124 xtb: 6.6.1 (8d0f1dd)
N            0.15681320307564        3.63983609755524        0.01304381704290
C            0.22510785176979        2.49182623575052        0.00973883700543
C            0.35111970817466        1.09087969454888        0.00638245094703
C            1.62709795745401        0.52318504876360        0.00734452018172
C            1.71781799558734       -0.96738777202693        0.00163032288734
N            2.98353646674750       -1.35978323651385        0.00236783532826
C            3.71552104943733       -0.21990353491619        0.00867275624087
N            5.04997673858521       -0.28658015416840        0.01194571200557
H            5.61175203076953        0.54530010823566        0.01758227609621
H            5.48351660662857       -1.19322346289347        0.01082544504037
C            2.92789743768187        0.96364668945287        0.01139664157192
H            3.29504273440634        1.97081112282953        0.01594703933578
N            0.66618649956365       -1.75180608011391       -0.00232881288967
C           -0.55471927684107       -1.21131382441873       -0.00082262266092
C           -1.57566543184438       -2.16484507701634        0.00243967758165
C           -2.95975381558633       -2.02215832216351        0.00905086201983
N           -3.73221438739405       -0.96673720724678        0.00323639432268
C           -3.33347860571684        0.30800312806130       -0.00839093014582
N           -4.37049290476511        1.17997207893050       -0.03044979943626
H           -4.22767624991878        2.17263843150696       -0.00734041010674
H           -5.30144986688919        0.80410376437622       -0.00899064263809
C           -2.03786576628312        0.84873680218740       -0.00249989690748
C           -0.78371789588191        0.24564835430301        0.00138150304334
H           -2.01416398867081        1.93480539800253       -0.00253059312194
H           -3.53104066913953       -2.94671041135823        0.01986205214260
H           -1.19980659465029       -3.17970288386780        0.00348729241349
