33
 energy: -58.873367947582 gnorm: 0.000866086305 xtb: 6.6.1 (8d0f1dd)
N           -1.35380010914337       -4.06332390755319        0.69623398012931
C           -1.16073932277182       -2.94493084804204        0.50895651685134
C           -0.95350856081419       -1.57152925157438        0.29016035767256
C           -2.06641257382914       -0.75010860933926        0.20130878229953
C           -1.87981642587689        0.67608441611704       -0.12798585481288
C           -3.11734964322199        1.24119029473936       -0.25398605268599
C           -4.08705123382769        0.21493649711890        0.01265390707535
N           -5.41622670760295        0.41415772868842       -0.01639290146706
H           -6.04664015641703       -0.33148650859509        0.21794137711471
H           -5.78639909401501        1.33042495175604       -0.19416885363033
C           -3.43459799235693       -0.99078879188509        0.28646728968180
H           -3.90154043310333       -1.92989607874856        0.51241512766739
H           -3.34391011340134        2.26269883082484       -0.49205451531379
C           -0.56978153489929        1.19429764112793       -0.21448122391605
C           -0.45963270326320        2.54454997935476       -0.60251771303269
N           -0.46556383554875        3.61131762622995       -1.03028880737897
C            0.55321439147144        0.38507559337735       -0.01465459045641
C            0.37310237200885       -1.06444569313200        0.09006659029080
C            1.36917691774345       -2.00770225431897       -0.03430029929238
C            2.74395062686634       -1.89743719588844       -0.34074868249287
C            3.50528307002245       -0.74323781442783       -0.32553267530704
C            3.12481739114152        0.56060233361041        0.02119367428415
N            4.13647191284571        1.46580790597550        0.13447871825891
H            5.08697809184985        1.14729801366929        0.17001150275333
H            3.93562383703724        2.39923246194728        0.45013977867005
C            1.80753275887403        1.03208601358580        0.19010367971570
C            1.73567780387655        2.35032495687647        0.69346798872290
N            1.78668673010558        3.36476423679652        1.23461635904673
H            4.56183842807297       -0.87219851143676       -0.53127897948084
N            3.38473360733409       -3.07727401366900       -0.58968514444984
H            4.32604136135899       -3.06600458622663       -0.93839757741831
H            2.84343589384366       -3.90943998520879       -0.74132789560893
H            1.03044772543827       -3.03524832214931        0.05009764661013
