29
 energy: -46.393745037558 gnorm: 0.000328694202 xtb: 6.6.1 (8d0f1dd)
N           -1.20616571725885       -3.60954934894498       -0.04430403740731
C           -0.91782466320722       -2.49606784554709       -0.02693449524349
C           -0.62594380310905       -1.11972931609656       -0.00659105332336
C           -1.72073925843017       -0.23889166409932       -0.00464583725599
C           -1.46475561490308        1.21289465680079        0.02142029136596
C           -2.70459689094250        1.85190525844481        0.02833913285053
C           -3.69118023460704        0.86101448773846        0.00689854420706
N           -5.02990674577090        1.06857664283979       -0.03708333872916
H           -5.38685508386913        1.98926954015992        0.14988381342788
H           -5.64527621993953        0.28976721345938        0.12017721094403
C           -3.08027652354053       -0.42749490210018       -0.01544996161545
H           -3.60467351475463       -1.36425554332375       -0.03523033607487
H           -2.87670080577778        2.91146688850541        0.04699902675407
C           -0.16798098383683        1.66746148348824        0.03392385770243
C            0.93997111593992        0.79722968485637        0.02558132189355
C            2.18751427052373        1.41137337585616        0.02428059676744
C            3.50246461368308        0.92883625001563        0.01676350696052
N            4.50172697335960        1.87636922887231        0.07176840499950
H            4.26892208512329        2.82424507263547       -0.17032759132855
H            5.43601363565070        1.58475231348396       -0.15918228110131
C            3.89588165738828       -0.40879466961685        0.02238882086814
C            3.08885144318820       -1.53352068943987        0.02910372346465
C            1.71099683847924       -1.62977094673609        0.02040252243365
C            0.70240954446928       -0.65577283175732        0.01198906494591
H            1.33335954798360       -2.64670056051813        0.01868329746859
H            3.61625765081697       -2.47923416665745        0.03515118631413
H            4.96521842306336       -0.58408653853583        0.02439749585379
H            2.13490769152123        2.49674500225366        0.03103846045699
H            0.01626157365677        2.73361921256309        0.04922888320069
