29
 energy: -55.991946757626 gnorm: 0.000707932742 xtb: 6.6.1 (8d0f1dd)
N           -1.98272357232591       -3.83549390531392       -0.70532506180420
C           -1.59946213832909       -2.77570836955992       -0.48805124450232
C           -1.12329310645138       -1.47168598606569       -0.24001215494803
C           -2.02569349768579       -0.42454734753339       -0.17948423124586
C           -1.55322668402539        0.92954750989890        0.16986219097661
C           -2.68058630267737        1.70150664273345        0.24149790652433
C           -3.76089202318705        0.81014023343167       -0.07771700419065
N           -3.35249932832729       -0.44693557056316       -0.32427154562840
N           -5.05250558743532        1.13252358279827       -0.13679592692473
H           -5.71671738329084        0.41634251965688       -0.37637649338258
H           -5.36180365409468        2.07086644171176        0.04355394119118
H           -2.76535171468710        2.74429963580607        0.47125938998476
C           -0.16849939078452        1.16908008668035        0.29444094131541
C            0.20925402417864        2.47887273831366        0.65327901943733
N            0.40501292668175        3.54096595347276        1.04445769234306
C            0.75234188844178        0.13373704773763        0.12178302296212
C            2.12073551052554        0.46564079841840       -0.09056603900169
C            2.40748150813583        1.77706728292702       -0.52996140847694
N            2.74777601220954        2.77144390749923       -0.99658176200448
C            3.26361436499363       -0.36489295194109       -0.01237581185173
N            3.34238828884025       -1.58105120175436        0.54023911325969
C            2.37654873922288       -2.42942377238163        0.70804513471465
C            1.03436136121770       -2.36596941696223        0.30192213305277
C            0.26216330798962       -1.24977118886188        0.02603262713968
H            0.50923873215031       -3.31363512818737        0.30085392680278
H            2.69356263482259       -3.35351589051928        1.18234826716509
N            4.45724967193264        0.10520937646780       -0.42837666965084
H            4.56385634794326        1.04862214598119       -0.75969339715076
H            5.26704185421601       -0.46713918229137       -0.26480865200612
