28
 energy: -57.057377279423 gnorm: 0.000538005936 xtb: 6.6.1 (8d0f1dd)
N           -1.60597298733622       -3.95202088974506       -1.18641738661959
C           -1.07380988527551       -2.98530293862816       -0.87690124051275
C           -0.40486772473312       -1.79501686321918       -0.51910590231146
C            0.94621126788321       -1.74799601224242       -0.32872647943748
C            1.59710957859575       -0.51765300602662        0.12271407690005
C            2.93287244329853       -0.81285784353973        0.31188501503850
C            3.95368742362665        0.02621381121782        0.76197685355914
N            4.82564508866446        0.67274607215818        1.13838527116780
C            3.13481506940305       -2.21435058965592       -0.03660000639349
C            1.95884802397502       -2.76656414154799       -0.41734944988939
H            1.77797877556667       -3.77677256145400       -0.72997188787734
H            4.09240397678788       -2.69878566931769        0.01601616651083
C            0.84883295784056        0.68235102120330        0.20031258871117
C            1.50804058090688        1.88153673532088        0.55478328645568
N            2.04516922675765        2.82298952057582        0.92740760400750
C           -0.51993536583065        0.65853875576519       -0.02938787533864
C           -1.20394235182425       -0.63285370560166       -0.17328295009936
N           -2.44356318159562       -0.88220921809783        0.08405508049075
C           -3.41366819250934       -0.02771130017919        0.46247804839832
N           -3.59311759572770        1.19224891714305        0.00025136291106
C           -2.64168407117434        1.97182798974846       -0.47976171602336
C           -1.26036561761031        1.83701885341830       -0.38924850907804
C           -0.53240332756979        2.93641333622090       -0.90520955335796
N           -0.01318136963722        3.83179239559237       -1.39926670387986
H           -3.01896944564442        2.88080946054355       -0.93610147852008
N           -4.36489098768508       -0.54942978956406        1.24497194005168
H           -4.34341885302051       -1.53095901316431        1.46166450690191
H           -5.18567197343485       -0.00318904622348        1.44135025463829
