27
 energy: -46.944515332035 gnorm: 0.000661206077 xtb: 6.6.1 (8d0f1dd)
N           -1.50454815877522       -3.57075509759284       -0.04773681703022
C           -1.32411389999036       -2.43522345987154       -0.03559271652752
C           -1.14085555726059       -1.03915913003253       -0.01686857545567
C           -2.25684621821252       -0.21073798120955       -0.00553460818298
C           -2.01938474081465        1.26572969812690        0.01863602936498
N           -3.18434488828179        1.92019171698276        0.02932927485606
C           -4.12583796827949        0.97032356318233        0.01348321846463
C           -3.63357119861825       -0.34320453769727       -0.00813159890056
H           -4.21077847701523       -1.24686375808568       -0.02340975042239
H           -5.16341923809762        1.25922394686830        0.01828004910816
N           -0.82882909872979        1.79854766870379        0.02680269439376
C            0.25577023666726        1.00075640624165        0.01434519487853
C            1.43199873625277        1.73226424450834        0.01944349914811
C            2.78794392823146        1.36651906283105        0.00842892767756
N            3.68423568117620        2.39599410042519        0.05666675601059
H            3.35529524115526        3.33401968143932       -0.08655007724354
H            4.65732861196469        2.21700685768537       -0.11562117156156
C            3.30154444671834        0.07426819965383        0.00128977134742
C            2.62281028585220       -1.14556240221727       -0.00502758801741
N            3.38869274771101       -2.27694758024884       -0.05839068397324
H            2.95153480918972       -3.16977561915666        0.08707955959713
H            4.37515807870754       -2.21596450858073        0.11937948400131
C            1.23635538557477       -1.34370442158553       -0.01307949235177
C            0.16050814055377       -0.46610291620036       -0.00691160177480
H            0.94859077250081       -2.39155719207431       -0.02774441593562
H            4.38371535712136        0.00160783577681       -0.00034350334369
H            1.24079915409835        2.79929630242747        0.03461628457275
