24
 energy: -44.565921959824 gnorm: 0.000663843058 xtb: 6.6.1 (8d0f1dd)
N           -0.55868172831548       -4.01465960926893        0.35116420930618
C           -0.51414095732344       -2.87050834715767        0.27628196544133
C           -0.46315717065271       -1.46396740841534        0.18901529331438
C           -1.67330267721042       -0.73070059704922        0.16520673150065
C           -1.62737520460481        0.72128900167622       -0.11004642990656
C           -2.97640422033880        1.17211379683171       -0.18410993560288
C           -3.78259006997183        0.09046677719736        0.03480414501972
C           -2.98965839766062       -1.08758294902715        0.25114789230109
H           -3.37758366569102       -2.06998429179908        0.44310957048559
H           -4.85767405206697        0.09813797211831        0.04478837332919
H           -3.27568002527803        2.18496235595296       -0.37258301266135
C           -0.43062932034078        1.38081050290156       -0.20135524589161
C           -0.36914320396730        2.77429096959173       -0.42638979369197
N           -0.33807407019893        3.90000857339786       -0.63880778697838
C            0.79372698568032        0.67096947389557        0.07960120018060
N            1.81032565345357        1.39386117726435        0.41309436024014
C            3.06184897129811        1.02914764331297        0.66817396264444
N            3.73193989176463        0.07081159356620        0.11003170878450
C            3.20376972293364       -1.00848813665734       -0.46641578613982
C            1.92436989833671       -1.50664618121768       -0.33280579371968
C            0.75931119940662       -0.81329065872215        0.07953345417897
H            1.75952403376694       -2.52273989847631       -0.67414625722891
H            3.93225256355698       -1.60882377973622       -0.99855748470464
H            3.62056967932162        1.72392569191228        1.28491591479731
