26
 energy: -48.825884685564 gnorm: 0.000412759990 xtb: 6.6.1 (8d0f1dd)
N            1.69201405865167        3.90589937430505       -0.00068589160236
C            1.23561188691430        2.85426630503120       -0.00018958339677
C            0.66519502417787        1.55963416393072       -0.00029574960251
C           -0.71356882827961        1.45878603177772       -0.00007580194161
C           -1.35388627826310        0.13853577400168        0.00008356886049
C           -2.72440716611302        0.41364509678263        0.00025770689802
C           -3.80057087137490       -0.47669687908722        0.00006343127182
N           -4.70464861820669       -1.18437639153766        0.00114446959634
C           -2.81269558565845        1.83267980660261        0.00027305253165
N           -1.63485268093260        2.43738275870114        0.00007473275518
H           -3.72144211749444        2.40736651181112        0.00032246650738
C           -0.56306428047367       -1.00951853126871        0.00005257216090
C           -1.21709753978298       -2.26397267290300        0.00147676795244
N           -1.76325429260146       -3.27253259869709       -0.00080822450582
C            0.84728060164466       -0.92472391710991       -0.00024909777331
C            1.53505562637333       -2.15389575366559       -0.00019897851091
C            2.87549753204557       -2.46956524756603       -0.00040198229747
C            3.97325745083529       -1.60995532456960       -0.00067176483212
C            3.95845681895372       -0.23084296289799       -0.00076287622435
C            2.86180271220277        0.62610080828379       -0.00062546940236
C            1.48735031543627        0.39330318685726       -0.00041617680216
H            3.12621502390932        1.67840397584426       -0.00071622837454
H            4.92327169354585        0.25915851743672       -0.00097804970701
H            4.94700249370216       -2.08264626616224       -0.00082558808957
H            3.10484261173190       -3.52705218145333       -0.00036728245803
H            0.87396765555632       -3.01451237494757       -0.00000384431334
