28
 energy: -51.491045334602 gnorm: 0.000909021507 xtb: 6.6.1 (8d0f1dd)
N           -1.27418595706080       -3.95833563521249       -0.00117641196787
C           -0.99976944733871       -2.84329932912360       -0.00452934494180
C           -0.68909368743914       -1.46823916689943       -0.00738468839996
C           -1.74533446935886       -0.56414631968469       -0.00821666991916
C           -1.47250989768004        0.88400228663346       -0.00948089112929
N           -2.63595954592452        1.52642054805077       -0.00834219563360
C           -3.54749478721705        0.52647188270424       -0.00666424864508
N           -4.85547447130838        0.76927002026245       -0.00479094478794
H           -5.49609042264947       -0.00364355074531       -0.00382735788146
H           -5.17764957702718        1.71999840348787       -0.00545763121548
N           -3.06044633315053       -0.73964113938626       -0.00639041585007
C           -0.16276049985812        1.34234785668046       -0.01076875580959
C            0.05273667560077        2.73426861569358       -0.00934880095800
N            0.22600709108998        3.87004655600410       -0.00757126382679
C            0.92763011998108        0.42579221222259       -0.01075972879308
C            2.19257907907231        1.00805368244465       -0.01254698379455
C            3.49624760675862        0.49797993724431       -0.00687748539420
C            3.85788645975095       -0.85682588373691        0.00170354917482
C            3.02129997710295       -1.95083816589809        0.00107262460612
C            1.63674557401198       -2.00830825515666       -0.00424695227721
C            0.65424764762171       -1.01172305633264       -0.00770351682992
H            1.23355247431829       -3.01482595357541       -0.00376107264749
H            3.51638286411608       -2.91365294861234        0.00661870526683
H            4.92207921604122       -1.05796658428813        0.00675370800728
N            4.50376120197829        1.41117365811839       -0.03615912214466
H            4.29956073997929        2.39150655363419        0.03960071459604
H            5.45837466388565        1.11580588933518        0.05934387044206
H            2.16470480850365        2.09379593623571       -0.01898270134597
