27
 energy: -46.947934142706 gnorm: 0.000581675036 xtb: 6.6.1 (8d0f1dd)
N           -1.17475837677914       -3.69086500079485        0.03237115796320
C           -0.90677059354693       -2.57307162634716        0.02602813597589
C           -0.63966915271524       -1.19027725890291        0.01922678432701
C           -1.72395815965477       -0.29887357239924        0.03259588520029
C           -1.40940424207780        1.15978772478946        0.02229836021049
N           -0.18349993008914        1.62927212777766        0.00830971320061
C            0.85234311345621        0.77417483256127       -0.00034382584136
C            2.07871152107932        1.41875902373360       -0.00616853851545
C            3.40184389925165        0.92647548145646       -0.01368621992902
N            3.84419159149085       -0.32201875414528       -0.02634441581710
C            3.10292109989408       -1.41314130016284       -0.03531845629515
C            1.73401486294681       -1.60978862327550       -0.02126127909053
C            0.67362480945282       -0.69054351284200       -0.00036122269515
H            1.42467462846300       -2.64972371185112       -0.02512287799422
H            3.71087247519573       -2.31365671938361       -0.05091552749061
N            4.39815658110622        1.84896298878958       -0.03344188354538
H            4.20650313549984        2.82620645001563        0.08366120101288
H            5.34311991276140        1.51471563682080        0.03088042009474
H            1.98515485861515        2.49861743343543       -0.00287007800344
C           -2.61833753694924        1.84375446146666        0.03322762247359
C           -3.64213768521399        0.88722827171911        0.05078474659685
N           -4.96139357745668        1.14336643544259        0.07056037444912
H           -5.29589075408065        2.08998706267157        0.05207745078350
H           -5.62533378247179        0.39005305421974        0.06576341738913
C           -3.08416720258958       -0.43200841984347        0.05100113720523
H           -3.64998625712121       -1.34476017777911        0.06283321416043
H           -2.74622069816696        2.90789215142752        0.02887486697445
