29
 energy: -55.985082659108 gnorm: 0.000882541625 xtb: 6.6.1 (8d0f1dd)
N           -1.77976319144143       -4.01178536792610        0.49479771076308
C           -1.41581823372883       -2.93842487157171        0.31297752457120
C           -1.01574318717862       -1.60047007359151        0.13032823837182
C           -1.97299822210092       -0.57656379634297        0.19734228973253
C           -1.58643547780871        0.79622228976397       -0.20205918955978
N           -2.64400618547002        1.59985610909786       -0.23162374674762
C           -3.69230919758931        0.83310860115315        0.14302888416212
N           -4.91433319247707        1.35873465527281        0.22244241497005
H           -5.70605410797894        0.79830422748748        0.48278760590413
H           -5.03299627820900        2.32993185223718       -0.01066230367040
C           -3.32744212279913       -0.52172372488758        0.41325276940245
H           -3.98901017080293       -1.31070612037976        0.70808177946435
C           -0.25243556940214        1.10803498634909       -0.44146616877812
C            0.07327809701705        2.40371500782592       -0.89365494394543
N            0.29747105860794        3.42871189594808       -1.35844485555315
C            0.74133734404904        0.11077776767570       -0.26362214683435
C            0.31098536966713       -1.30909490054490       -0.22039073872060
N            1.05918680937726       -2.33255491190284       -0.58994250420283
C            2.33491648896128       -2.43860662160139       -0.80252812386412
C            3.36552233762993       -1.61075298938531       -0.36252861639180
C            3.24345159211418       -0.31225785503231        0.12568202301577
N            4.35261239803313        0.27615535535713        0.62945731908680
H            4.35069352473782        1.24596087024421        0.89678181892811
H            5.22395719338262       -0.22311797647428        0.62779090792781
C            2.05191891228566        0.48729522262882        0.03454696451191
C            2.25649753305975        1.83374306052805        0.43041213981489
N            2.52862361405406        2.86439240959795        0.85890384495199
H            4.36610984242957       -2.02243166412884       -0.38783063007214
H            2.61550475087792       -3.36763584089659       -1.28845220743819
