25
 energy: -48.298811177150 gnorm: 0.000908214192 xtb: 6.6.1 (8d0f1dd)
N            1.16975695105125        3.77390060660309       -0.38336115153337
C            0.91385332154562        2.66402534217463       -0.24855187792741
C            0.55271689102779        1.30702520878772       -0.11519082959964
C           -0.78936664135309        0.92013662281869       -0.15292566299127
C           -1.10407177934964       -0.50508966520786        0.14485401467038
N           -0.18252772639897       -1.44020708779958        0.23961522327544
C            1.09239623928224       -1.09581284196521        0.14558848495339
C            1.99256624646965       -2.09150347251343       -0.24451384229608
C            3.35474761550976       -1.93189752709633       -0.51471969227224
N            4.18355068520781       -1.03609402234836       -0.04168834710230
C            3.83688714563669        0.04508625151002        0.63244776690365
N            2.73529556483292        0.72728113793066        0.51877187994139
C            1.52994729392077        0.33172186986899        0.17031327485708
H            4.62535517181666        0.51561248830818        1.20939700358556
H            3.83131994616722       -2.68765682794653       -1.13165731340863
H            1.53194769798872       -3.03341880100110       -0.51530773202916
C           -2.49012257498086       -0.61009303576547        0.21888498176246
C           -3.26973995979513       -1.73206915682214        0.48953681384179
N           -3.97410604610076       -2.61529696286110        0.70611285707897
C           -3.03173354949478        0.69403929282339       -0.05476428972565
N           -4.33790091353136        0.96685966767353       -0.07717950713585
H           -4.66419526027849        1.89797342342188       -0.27049801864019
H           -5.00693573310863        0.23724710134717        0.10681391999488
C           -1.97975198867777        1.60773139622969       -0.27406849402338
H           -2.09566387028774        2.65480284563030       -0.47914602027868
