27
 energy: -46.959187544434 gnorm: 0.000681872979 xtb: 6.6.1 (8d0f1dd)
N            1.13199782852353        3.67208450090246        0.04629066451775
C            0.86472350874736        2.55396996929212        0.03078988885540
C            0.60989581002187        1.17000509747373        0.01471398763424
C            1.73216731364528        0.31232252706090        0.02097952650057
C            1.51514146912943       -1.14370222859621       -0.00230671027085
N            2.69485901100731       -1.80187049942010        0.00324624509255
C            3.62910464366142       -0.85229086727078        0.02911928327733
N            4.93532159375240       -1.15334090935583        0.03342527458774
H            5.21119229463834       -2.11881057705651        0.04618609944499
H            5.62928384837219       -0.43083489508648        0.08966098129909
C            3.08840276574306        0.48273059481487        0.04157760392983
H            3.65380816071553        1.39328039572668        0.06231543389147
C            0.24813084282291       -1.64832251978914       -0.02022240535822
C           -0.88675985723575       -0.79557887496307       -0.01564608873378
C           -2.11584537720015       -1.42328769393112       -0.01337972450890
C           -3.44251940996216       -0.91506563698582       -0.00003889350775
N           -3.87551703833377        0.32941571050097       -0.01803435713039
C           -3.11715744632579        1.41704572284722       -0.04152984356870
C           -1.75345602659831        1.59388394316834       -0.02897631428149
C           -0.69047952721022        0.66120107288426       -0.00702189741283
H           -1.43097262526365        2.62903735677193       -0.03728988869321
H           -3.71718680252388        2.32218747994982       -0.06493500318805
N           -4.44020085598524       -1.83573266752386        0.00695856552920
H           -5.38374036303165       -1.49732505210993        0.07160549129950
H           -4.25515949283217       -2.81515732759267        0.11734970653481
H           -2.07133389486309       -2.50763226020106       -0.01733731146995
H            0.09996469048536       -2.71753757421101       -0.03362861617051
