27
 energy: -50.967481023956 gnorm: 0.000640118867 xtb: 6.6.1 (8d0f1dd)
N           -0.81184919975730       -3.31358317826378       -1.38652265992781
C           -0.77877686681314       -2.23853690885689       -0.98484988686288
C           -0.71256541547909       -0.91534247542440       -0.51132057958320
C           -1.85072141088385       -0.17536384128857       -0.23981931827187
N           -3.12711946591303       -0.53766403634645       -0.37932359628652
C           -3.84721943645647        0.50439543108421        0.08030317917170
N           -5.18175935699104        0.45265035039714        0.08040039728775
H           -5.73269968775527        1.22437938420338        0.40980305932981
H           -5.62708841883673       -0.37990184995241       -0.26485761285043
C           -3.04146865869922        1.59316554305776        0.53529176754055
C           -1.74101318744518        1.18954209829818        0.34643835183648
C           -0.49353227260916        1.79454429177684        0.48961001664984
C            0.64841350192086        1.09927399230991        0.14082946784663
N            1.77887527501752        1.77252828386880       -0.06202513711571
C            2.98464630169674        1.29959181698892       -0.30051905944967
N            3.84164916629266        2.15706164237971       -0.89857543684440
H            4.81852448310774        1.92480077653469       -0.90441066557644
H            3.55200890189669        3.11113197967444       -1.01805191193350
N            3.52930374745885        0.13512846425658        0.08118634984083
C            2.80328703520709       -0.91993430635832        0.37966626246140
N            3.42197458625855       -1.92997999340980        1.02224182556024
H            4.41646233819436       -1.87767775890956        1.15276584598532
H            2.95428737624481       -2.81857962994086        1.06445846009163
N            1.53668682477935       -1.19615411997789        0.02464536328053
C            0.55194621791155       -0.36614214044434       -0.15174359631557
H           -0.40939132779233        2.83016588515150        0.78111640801244
H           -3.40516182745537        2.51916091559109        0.93324082342267
