29
 energy: -56.000497161464 gnorm: 0.000814566887 xtb: 6.6.1 (8d0f1dd)
N           -0.89497556267208       -4.11070457415835        0.64383372464538
C           -0.53474160273369       -3.03785381207696        0.45446617895105
C           -0.06356675895701       -1.72731882586373        0.24085723206732
C            1.32392349934833       -1.47051560271221        0.24903639673005
C            1.80564806474096       -0.12937537595874       -0.11073242574200
C            3.24433638019305       -0.19356972446717       -0.10569950903142
C            4.11310725807728        0.86377504439987       -0.38041752656641
N            4.84406204257523        1.72322718865798       -0.59921842147489
C            3.59054102974891       -1.48700615246254        0.23817160640821
C            2.42338055822657       -2.26904705573237        0.45195459796241
H            2.41384955454109       -3.30802130732689        0.72090414483575
H            4.59848150023946       -1.85045186418014        0.33014442159961
C            0.93326431042363        0.89060571957815       -0.35566225635215
C            1.37418675443552        2.18367619870258       -0.70967717571008
N            1.67411668712315        3.25274353609172       -0.99916833713557
C           -0.49560016025137        0.67355451462044       -0.18184171665377
C           -1.29074823998878        1.76487389358375       -0.01956669434605
C           -2.69396032913442        1.79102375812657        0.34675264374859
N           -3.58812228085451        0.86999321216369        0.14286979961591
C           -3.33054343341685       -0.36610172824339       -0.34614719888245
N           -4.39485256505551       -0.97404048052221       -0.90364100051280
H           -4.32216404456661       -1.95404848979645       -1.11516327231860
H           -5.29823215952196       -0.54356888781510       -0.81810323123621
N           -2.24546463729140       -1.08083204284534       -0.23924474125622
C           -0.98006120462250       -0.71196732977438       -0.03391312750640
N           -3.12491470453387        2.92871774706571        0.91933026469542
H           -2.51197864699856        3.70816506697009        1.07512739052669
H           -4.09163474347318        2.99357475450989        1.18679687924090
H           -0.81523830729994        2.73886419926525       -0.06206958240186
