25
 energy: -43.503254581362 gnorm: 0.000965926046 xtb: 6.6.1 (8d0f1dd)
N           -1.93190413544029       -3.44655924749722       -0.03086338223208
C           -1.53078990634344       -2.37016538586175       -0.01776595925570
C           -1.09817152797740       -1.02764633539892       -0.00374642016281
C           -2.05651838698534       -0.01643928838437       -0.00279362471657
C           -1.56459004812635        1.39411317038535        0.01122797135947
N           -2.59987291898062        2.24373288050736        0.01137891269923
C           -3.68980388116468        1.47585545966461       -0.00206875942582
C           -3.43270042633153        0.09205406055371       -0.01187280085317
H           -4.15950734523429       -0.69623856275077       -0.02355419510796
H           -4.66163933313994        1.93966260828372       -0.00459435129763
N           -0.30109313372007        1.71173893256627        0.01889849037917
C            0.62860457103365        0.73621679859966        0.01567507903470
C            1.91231509005646        1.26214250950559        0.01794986810798
C            3.19049650825034        0.68282508955041        0.01025635473574
N            4.24642068952032        1.54119621897993        0.03831819466607
H            4.09150225688227        2.52810229520661       -0.06172663166370
H            5.18193746671822        1.19566759338417       -0.07769474104192
C            3.47000005674377       -0.68747914563867        0.00740954798124
C            2.58014624718452       -1.74629245398599        0.01190782744351
C            1.19733218886434       -1.74262015871313        0.01100564910923
C            0.27548889714588       -0.68976178943594        0.00701688156992
H            0.74076145604908       -2.72731755462463        0.01109998241009
H            3.03455036137330       -2.72905413717769        0.01265982530176
H            4.52161322119027       -0.94864804605862        0.00397336628248
H            1.89679271703119        2.34675904644032        0.02488451727680
