28
 energy: -55.498551394127 gnorm: 0.000956850185 xtb: 6.6.1 (8d0f1dd)
N           -0.65026138143341       -3.90770006105614        1.01253659280584
C           -0.66669508187127       -2.79133740585970        0.74100620429098
C           -0.64356538508935       -1.42570820100072        0.40709961012755
C           -1.82244916035774       -0.72862124847215        0.21172473566039
N           -3.09537980253541       -1.11101594395586        0.29270662143595
C           -3.78158062771174       -0.00522144677869       -0.06025450546940
N           -5.10880805019557        0.01998814728936       -0.10427661265438
H           -5.57129471540842        0.87334222035899       -0.36260332607562
H           -5.62333027588875       -0.80896201867557        0.13409369741221
N           -3.04488443379639        1.09846096760717       -0.37240310145389
C           -1.79721901253435        0.69301664784015       -0.21469011105448
C           -0.58702283936023        1.37524561941416       -0.31602555355804
C           -0.54848433282444        2.75125124638403       -0.61651080320599
N           -0.51499220304041        3.86872341884028       -0.87369131058553
C            0.61622475473430        0.70301733888879       -0.01840432236219
N            1.67890218780502        1.46448223625350        0.12993587440393
C            2.95007102180212        1.15496457356380        0.29134933957057
N            3.60912714649776        0.06683877254962       -0.11697603069195
C            3.05969861118889       -1.11215990752330       -0.30748827402264
N            3.88071623481809       -2.05377049981866       -0.81227945664502
H            4.83050538039596       -1.79968420957862       -1.01892095948855
H            3.57966476341195       -3.00375194037959       -0.92935179801381
C            1.73397912915378       -1.53055203570714        0.02402389125289
C            0.60295116546212       -0.76461263435486        0.18837237912455
H            1.58992813073125       -2.60531643932318        0.05397836113859
N            3.71386859204729        2.12678096075537        0.82387450321452
H            3.29789945508117        3.03049094393019        0.96822634862409
H            4.71308600751951        2.02931831060993        0.79445403022198
