24
 energy: -43.772548201666 gnorm: 0.000650904056 xtb: 6.6.1 (8d0f1dd)
N           -0.34195351767185       -3.54285790692352       -0.00462866764416
C           -0.26887503316142       -2.39875200474976       -0.00320890348196
C           -0.20780720460042       -0.98702958958519       -0.00328175873875
C           -1.37501520274217       -0.23811335307703       -0.00472551314047
N           -2.63882393934296       -0.65988687785931       -0.00663039486363
C           -3.39205300513032        0.45752431135550       -0.00708352295492
N           -4.72400645587212        0.37347608706023       -0.00885509204925
H           -5.29930404283530        1.19622194014512       -0.00946686704057
H           -5.14322873286086       -0.54048945447171       -0.00998219739624
C           -2.61396155135130        1.65828088374730       -0.00540856051892
C           -1.30488331567118        1.24090868639480       -0.00382263314143
C           -0.06013958138713        1.87074998829100       -0.00210044397615
C            1.11501497423514        1.14609568663085       -0.00101473491358
N            2.22733106471957        1.90235091731950       -0.00090626681859
C            3.47069625400337        1.53801342753928        0.00039440706027
C            4.05404295795599        0.25224039957332        0.00332564683507
C            3.37345053700531       -0.94735463036027        0.00436539269618
N            2.07258537415520       -1.19549532195434        0.00179279618805
C            1.06251524864352       -0.35479216622740       -0.00089817096447
H            3.96165854867127       -1.86066044682865        0.00716540822977
H            5.13510890998435        0.21097161713593        0.00494722240636
H            4.16044647755544        2.37866040456452       -0.00047386039358
H            0.01117377990028        2.94821410072065       -0.00186172027688
H           -3.00077437570237        2.65749305685915       -0.00543988610214
