25
 energy: -48.303050783082 gnorm: 0.000347457888 xtb: 6.6.1 (8d0f1dd)
N           -3.05139083302634       -3.45335007949533       -0.58582850844680
C           -2.58113711803931       -2.41629683234648       -0.42208889409727
C           -2.03413468173663       -1.15176519683351       -0.21547027169239
C           -0.67096086069821       -0.80699281824323       -0.20167978044416
C           -0.58192500083058        0.65158652971995        0.04662222164919
N            0.55697652248865        1.32108032048399        0.02046363113190
C            1.67525637794742        0.65312844206271       -0.18174131380118
N            2.72395556475694        1.36880280419226       -0.54528512187503
C            3.98208712026761        1.06429841586736       -0.56718983627181
N            4.61687359908494        0.16951215969374        0.17777361996935
C            4.09253000411778       -0.94270614843526        0.61136038736110
C            2.85787994113974       -1.51785555002389        0.26618385778943
C            1.71360206757036       -0.84411550960245       -0.14202508026411
C            0.49421051779658       -1.53103975581458       -0.27528242105605
H            0.48412427333259       -2.60959636132235       -0.35797243423709
H            2.73941438119565       -2.57420784694775        0.48379877610317
H            4.74603137557296       -1.52096182454560        1.25728431129859
H            4.62130572694541        1.72244746768719       -1.14619300699876
C           -1.87889081658920        1.13219501604129        0.20690126516579
C           -2.30798865433037        2.43287062493043        0.47311557189320
N           -2.74060065407874        3.47402531052286        0.69679042921440
C           -2.78039547181635        0.02750334345254        0.03928128733876
N           -4.10836713553453        0.11342049100489        0.11633201881457
H           -4.68047469211433       -0.70415111199798       -0.01705464859025
H           -4.54581969962116        1.00194121874939        0.29864773474548
