27
 energy: -46.946715649328 gnorm: 0.000863880030 xtb: 6.6.1 (8d0f1dd)
N            1.32391484778532        3.50110068756101        0.18665285849016
C            1.20094143308262        2.36118359534129        0.12033018181303
C            1.08416952534081        0.95962519638004        0.04668445363911
C            2.24432399723262        0.15889784879848        0.03607971771419
C            2.09190541262314       -1.30011924914447       -0.07670133897029
N            3.32175306572239       -1.90239838555825       -0.09001283724095
C            4.18762440381090       -0.91996656491932        0.00476461498818
C            3.59776610228833        0.37706434887226        0.08574248667023
H            4.11965130598535        1.31002673656992        0.16680633046225
H            5.24374284333010       -1.13086717935669        0.01683255376696
C            0.86515890863356       -1.87380665649921       -0.14253578584708
C           -0.32382097742980       -1.07969192428045       -0.08819570453087
C           -1.50858604805172       -1.76539659125983       -0.05712867721364
C           -2.86139843940527       -1.31969961895763        0.03560410174895
N           -3.79909664156595       -2.31081721399364        0.08049754346268
H           -4.75616522591731       -2.07446665157367        0.27218316018423
H           -3.51521345737726       -3.25848903288349        0.25079524743742
C           -3.28549951323164       -0.01299208538640        0.02497621956007
C           -2.47990198329203        1.15630636227048       -0.07741244642458
N           -1.18235563084638        1.28498796863523       -0.05743788319268
C           -0.18907471814733        0.39245545738554       -0.02859671137131
N           -3.13613826848359        2.34005652767856       -0.21423067050020
H           -2.56804320135373        3.16915472708131       -0.17361901353171
H           -4.12051222804967        2.41595301742668       -0.03545956835303
H           -4.35401215514448        0.15583670124801        0.08228994816444
H           -1.41402964331712       -2.84684932735214       -0.08644611586892
H            0.77296902547848       -2.94755224698383       -0.21907349025650
