30
 energy: -54.918017876166 gnorm: 0.000744217667 xtb: 6.6.1 (8d0f1dd)
N           -0.29697632952756       -4.01298290396037        0.56639086334226
C           -0.13750553492033       -2.88424382386548        0.41372867492053
C            0.07264633594877       -1.50515520791912        0.23429495099768
C            1.36590556931685       -1.01014009481100        0.14651803002139
C            1.52027409278394        0.44313866447325       -0.11565352636107
N            0.50930028207140        1.28807078318365       -0.15365188018583
C           -0.72782326083027        0.84150329510706        0.01100458945795
N           -1.61011972810965        1.81170497207503        0.13989415621486
C           -2.92219525568174        1.82350394109059        0.19937630899301
N           -3.43042375860379        3.03024719322300        0.56364040012964
H           -4.40348578099291        3.24296263808802        0.43945016196910
H           -2.77192585622794        3.78681787787727        0.63723795225252
C           -3.83771628582125        0.79430821010273       -0.10524975006342
C           -3.55457323258884       -0.55306024224513       -0.24466617718048
N           -4.57382958632283       -1.39807385933710       -0.56537096210537
H           -4.43252936319121       -2.39105381149719       -0.51006956205592
H           -5.51989776545431       -1.06153572860906       -0.56165100940683
C           -2.28833941724252       -1.15959511408908       -0.05863313719054
C           -1.03374158932759       -0.61263695638281        0.08996488733213
H           -2.31558466213062       -2.24597170327417       -0.07389250708916
H           -4.87463241519977        1.08969932826856       -0.20862661978512
C            2.88290051407678        0.68965549184805       -0.23917173921850
C            3.54564155789561        1.88531016888140       -0.49148101136454
N            4.16933602059344        2.83102541594021       -0.69853939310754
C            3.56499299085766       -0.56781541762767       -0.03982664433880
N            4.89854299165489       -0.69305408894119       -0.08293225095685
H            5.46965983697845        0.11627115408999       -0.25833411153821
H            5.33625410787186       -1.58459503353126        0.06749307984383
C            2.63019856581288       -1.58237049328995        0.19429064432372
H            2.85560960111071       -2.61714278026839        0.37070803704945
