29
 energy: -55.992823779363 gnorm: 0.000871921256 xtb: 6.6.1 (8d0f1dd)
N           -0.43595889339754       -4.00909922690677        0.87171715654969
C           -0.49181200069866       -2.88736111230713        0.63932244291294
C           -0.53304872994069       -1.50571272102955        0.36094433353991
C           -1.72941774724450       -0.82730353207372        0.22451936816672
C           -1.72484962506499        0.58772732275060       -0.20394701438824
C           -3.04260992420252        0.92711383956659       -0.34950188013319
C           -3.77333012764774       -0.25861690082703        0.00561228139555
N           -5.10022539533093       -0.38542868563178        0.01654345103638
H           -5.49665607119347       -1.26823276947751        0.29006095846972
H           -5.69621424001183        0.38566949356920       -0.22581551329591
N           -2.97814390835785       -1.28764037802365        0.34065068624766
H           -3.46415450304541        1.86556357200519       -0.64793650968520
C           -0.50216119628046        1.28612824404711       -0.30786609536346
C           -0.57264328769904        2.63425606145767       -0.71229803427642
N           -0.71889435100377        3.69266885764334       -1.13338117669188
C            0.70290090824890        0.63165606085415       -0.05247602543805
C            0.69879522686004       -0.84053092237864        0.08221176627444
N            1.71192793243956       -1.63819164520429       -0.10583855168822
C            3.00371081339511       -1.44372752145539       -0.30562263658215
N            3.64792759301668       -2.50526067762476       -0.83661052894523
H            4.65038209345089       -2.53551939041531       -0.87778455160818
H            3.12198077490277       -3.35117691934773       -0.97660938213796
C            3.73890434418647       -0.30801653487044        0.09201590629836
C            3.20104214822886        0.92404489956367        0.38583616737840
C            1.87837284170641        1.36427393013480        0.25643353974352
C            1.72272152621937        2.72398674531885        0.62779938604814
N            1.69284899048006        3.80321288660617        1.01662142077180
H            3.89930102951571        1.68676207029286        0.71079186440718
H            4.81119166976077       -0.42128350953152        0.17318573389170
