26
 energy: -47.228249573277 gnorm: 0.000361303981 xtb: 6.6.1 (8d0f1dd)
N           -0.11126474747013       -3.47605628480947       -0.80023528895451
C           -0.19829653378133       -2.35444831467861       -0.56956941733174
C           -0.33597685726463       -0.97763590032601       -0.30856606169380
C           -1.59503094219129       -0.39014826024644       -0.18037277908752
C           -1.65121993136853        1.04612775952625        0.23935113329491
N           -0.57327396347675        1.81257844024241        0.31230982453026
C            0.61607148388383        1.27720531484479        0.09823934966629
C            1.65640433506502        2.16381036473610       -0.20621285033795
C            2.97801099337226        1.86370179597609       -0.52388626597101
N            3.67844424993644        0.78005048216312       -0.29453836519243
C            3.17948260787134       -0.35540009495094        0.20257570847705
N            4.07575390993616       -1.19034284479767        0.76920843951254
H            3.79284429453025       -2.13806173435376        0.94825006259953
H            5.05183418330899       -0.97043665675925        0.67786148485164
N            1.95428830052851       -0.82985338977610        0.07229975247469
C            0.81272194371580       -0.19528758984785       -0.05094222981732
H            3.56438338667257        2.65544944968559       -0.98120953405711
H            1.34253954437938        3.19338442617146       -0.32210198873433
C           -2.97302172932162        1.36184642890630        0.44840580576083
C           -3.73974876746053        0.20193992437666        0.15120454661739
N           -5.07618506580659        0.12681789939139        0.23441187046620
H           -5.61446250368023        0.92678541000515        0.51575771842357
H           -5.55272475034983       -0.72661872498813        0.00268122825365
C           -2.88747046180215       -0.86202308173588       -0.22810066502846
H           -3.20189670029757       -1.85473044069275       -0.48860179163678
H           -3.36596179102953        2.30694613863900        0.76664710421420
