28
 energy: -46.661284085852 gnorm: 0.000870660624 xtb: 6.6.1 (8d0f1dd)
N           -5.38727029457530       -0.04998474895977       -0.23367953695589
C           -4.23840876259358       -0.01351669538875       -0.16457415361459
C           -2.84912192430787        0.01739264540731       -0.07405378216450
C           -2.06007385035568        1.15269693744006        0.03170820003796
N           -2.47506160892342        2.44772085827976        0.01006927546079
H           -3.45692977820347        2.62530817600110        0.14478520701974
H           -1.83922141242566        3.15396756477629        0.33807063515353
C           -0.68112269349357        0.71479929828026        0.08087717481432
C           -0.68573510266932       -0.73718967781023        0.01002388444137
C           -2.00041068108762       -1.15795019237941       -0.08655474119238
N           -2.48662022053584       -2.43391133404781       -0.10651988012384
H           -1.84739982173401       -3.16825471493541       -0.35914437867938
H           -3.44282556632164       -2.55544325371915       -0.39808569473678
C            0.54594460660628       -1.40703880725550        0.11257718440398
C            1.72841156755613       -0.71536660124522        0.14701328316154
C            2.94350866307670       -1.45598988965836        0.43377434067886
N            4.16494334038873       -1.20533636873603        0.18258110153859
C            4.70327764314990       -0.07443334973124       -0.33790250364976
C            4.20595146862823        1.18583949995306       -0.24533915333546
C            2.86534746365012        1.54530635774361        0.05589517660499
C            1.74440392880548        0.74460167193998        0.12266833007933
C            0.47830680066030        1.41007645597045        0.17371255626033
H            0.48012506106398        2.49165169944156        0.21973226038515
H            2.68489183462551        2.61306494789003        0.10353130928196
H            4.87000998291288        2.00625003086784       -0.48587834111459
H            5.70002499689810       -0.23209809570029       -0.73283656380056
H            2.78438212838934       -2.40396540102560        0.94641509121539
H            0.56478846411494       -2.48711222869898        0.16915300043039
