22
 energy: -40.332283880888 gnorm: 0.000293573599 xtb: 6.6.1 (8d0f1dd)
N           -0.91915643072821       -3.52935786022091        0.00063781376346
C           -0.77759515574895       -2.39094603790385        0.00097333141853
C           -0.59905854619047       -0.98945340042018        0.00046072608111
C           -1.72660702833417       -0.17354989406594        0.00054593620734
N           -3.02702360911773       -0.45413384167940        0.00073218291287
C           -3.61075514060764        0.75625489992842        0.00080172002382
N           -2.81197154763141        1.82191797021030        0.00070075252089
C           -1.57786609546771        1.29801885568710        0.00054620694363
C           -0.32958662257408        1.87107149653745        0.00032925335022
C            0.82195284472499        1.06854230548922        0.00012959066449
N            1.94093396368799        1.77815411929777       -0.00029569458188
C            3.19617362929433        1.42522073350247       -0.00051112575570
C            3.79400316529182        0.15903812187389       -0.00004072208327
C            3.14529682428986       -1.06107289554494        0.00049884057060
C            1.77489229626974       -1.29847288172785        0.00057388678902
C            0.69343666446410       -0.41592933299952        0.00031544874739
H            1.49612699404337       -2.34731290286531        0.00090154229243
H            3.77170328614844       -1.94379240189762        0.00083048186109
H            4.87600639525057        0.14336784575718       -0.00010812227520
H            3.86938180689740        2.27849816610736       -0.00105071788763
H           -0.20123302187681        2.94178282186980        0.00023656901508
H           -4.68091243848546        0.85474449126460        0.00094408052173
