26
 energy: -48.029829015480 gnorm: 0.000965596772 xtb: 6.6.1 (8d0f1dd)
N           -2.02347906501485       -3.69998186254240       -0.00045710846781
C           -1.63009721421283       -2.62198825807716       -0.00024078816045
C           -1.15755410635255       -1.29161267418986       -0.00002771392785
C           -2.08886410002000       -0.26360315099167        0.00107103511768
C           -1.63789668385944        1.14052092076044       -0.00021355207395
N           -2.72715425042519        1.91626263246422        0.00057945787641
C           -3.73566752726668        1.04122424080950        0.00351723650674
N           -3.42252949177724       -0.26120213949435        0.00266138059071
H           -4.75920448933919        1.36826933407199        0.00343091756394
C           -0.28652042214076        1.43755433279901       -0.00206864735902
C            0.10511947067373        2.79268057372011       -0.00430519102476
N            0.43258975160378        3.89303036389619       -0.00585042025464
C            0.68461290531278        0.39077868861513       -0.00136610704762
C            2.00846336714037        0.81338312716753       -0.00033934741175
C            3.24317331335938        0.14757893285222        0.00209871029361
N            4.35174427455155        0.92928985509267        0.00466863634897
H            4.27250301208421        1.92998743944227        0.01239120537054
H            5.26739688135919        0.52048327790191        0.01509535338159
C            3.43135016415318       -1.24248299833410        0.00000989254388
C            2.46773234782670       -2.22603139335618       -0.00253126522534
C            1.08493919755577       -2.11271095003231       -0.00240363570984
C            0.23417424833968       -1.00407857612064       -0.00103009057613
H            0.56237676214386       -3.06292534167153       -0.00338486143273
H            2.84066252711343       -3.24214788596196       -0.00428200090940
H            4.46232010822426       -1.57447775489150        0.00039690433891
H            2.11481526416689        1.89452215487050       -0.00034717105170
