25
 energy: -43.497748546341 gnorm: 0.000935010755 xtb: 6.6.1 (8d0f1dd)
N           -0.58647456038059       -3.54182801493421       -0.09943606992274
C           -0.62817498668799       -2.39327167254956       -0.07030426328850
C           -0.70318027962666       -0.98768021726702       -0.03513895092875
C           -1.97328009276021       -0.39871632631036       -0.01429729224845
C           -2.08511858738976        1.07587540150210        0.04061524548714
N           -3.38084914626190        1.44262583120854        0.06147324981944
C           -4.07314429428903        0.30764774855565        0.02307437575996
C           -3.27610379033466       -0.85539098615419       -0.02399976364408
H           -3.62225237207806       -1.86935682858072       -0.05915093873007
H           -5.14933215435683        0.33904333098961        0.02960700002510
C           -0.96025505901221        1.85490816871390        0.05110389360976
C            0.32877107208709        1.28150116378930        0.00376121989261
N            1.29236311275324        2.17582326074657       -0.03281523872677
C            2.60129749483243        2.03656714015231       -0.07329211007403
C            3.41052853507635        0.91945848818035       -0.02270633468115
C            3.00957631256003       -0.42657630781931        0.03680010132149
N            3.98431007678410       -1.37093525531304        0.12142994405180
H            4.94982108949490       -1.11031328543484        0.03872999678166
H            3.75018490559811       -2.34599322624310        0.07188734459227
C            1.68488225715816       -0.87905897967817        0.01880018282078
C            0.46796607965258       -0.20201925282148       -0.01452378785606
H            1.59097764790460       -1.96137876987065        0.04176934464599
H            4.47889934216721        1.09710248518948       -0.02899037398989
H            3.10990427910200        2.99507358079219       -0.13716532708091
H           -1.02653090869290        2.93076209205674        0.07654672516340
