26
 energy: -47.227320736558 gnorm: 0.000877916443 xtb: 6.6.1 (8d0f1dd)
N            1.03189583935677        3.76128551280781        0.01991149723286
C            0.80238620820605        2.63666725788873        0.01225817675951
C            0.59629319445068        1.24188089858707        0.00339397563338
C            1.69770394815300        0.37247818798506        0.00612520553930
C            1.41478006970624       -1.09218003232374       -0.00564578170900
N            2.55404479702557       -1.79066107328349       -0.00382479898181
C            3.53491998304465       -0.87535683828888        0.00833849367883
N            4.81776430752870       -1.24982037373646        0.01426916964400
H            5.03131099448115       -2.23167684362470        0.00745824347627
H            5.55474783951811       -0.56841781396725        0.02104155050711
C            3.06059010553641        0.47842397182516        0.01472087260945
H            3.66957435658988        1.36060984005762        0.02385768868689
N            0.21195693407191       -1.59512908033742       -0.01475200849220
C           -0.85037425554677       -0.76154887210647       -0.01387343698245
C           -2.05270524713061       -1.44294141617704       -0.01272437274408
C           -3.38843450710660       -0.98769849048891       -0.00635724168274
N           -4.35119537345284       -1.94449347397283       -0.02175229211418
H           -4.10195201137757       -2.91373511154417        0.05562521038302
H           -5.31913812732320       -1.69074080111223        0.05876146930654
C           -3.78552852539778        0.34725400227176       -0.00835626148228
C           -2.96570059684179        1.47768231084943       -0.01878532274262
N           -1.67447842220490        1.62723075934272       -0.01568568353895
C           -0.70060786255684        0.71092637791869       -0.00860200048160
H           -3.48734022013372        2.43237199299349       -0.02644512562283
H           -4.85216572889583        0.53387652295304       -0.00422695485024
H           -1.92209832600066       -2.51922739561693       -0.01398625873222
