28
 energy: -55.488909605819 gnorm: 0.000779671487 xtb: 6.6.1 (8d0f1dd)
N           -0.41352475189863       -3.78703645763145        1.28721381956083
C           -0.23150909118136       -2.70808112916071        0.93921657427221
C            0.01020595482755       -1.38117664365664        0.53826039212394
C            1.30929151610985       -0.88061823127362        0.42004132441044
C            1.48523165159125        0.46003374294709       -0.22378528840522
N            0.49049549092795        1.29271185524234       -0.43855733296934
C           -0.73282365725576        0.89091708779488       -0.13318759140139
N           -1.62837198662750        1.80004988309069        0.15148333064467
C           -2.93257380805922        1.63588218525250        0.37965982323799
N           -3.49953505349058        2.60592484610152        1.11736550430804
H           -4.49998052148846        2.63480232738731        1.19762151010193
H           -2.94214056779906        3.40463913003276        1.36379595389134
N           -3.75429473793162        0.72316838920990       -0.12477066000551
C           -3.32526257581210       -0.45343227785977       -0.56472469343310
N           -4.17299035042124       -1.16044475594459       -1.33228858343676
H           -5.10313112000136       -0.80691396851797       -1.46968532542871
H           -3.97339160490235       -2.13077850817972       -1.50111510773268
N           -2.21515789788452       -1.08709213204162       -0.19206980739532
C           -1.04826258394400       -0.56655132850812        0.07659262978334
C            2.84881752542542        0.62751597010413       -0.44456255449361
C            3.52256790367530        1.69460770150884       -1.03138704012425
N            4.15466162267686        2.52988003830875       -1.50796872424033
C            3.51266029493669       -0.53323694809947        0.08624656978022
N            4.83546973628745       -0.70488801358825        0.06021565571221
H            5.25339242080524       -1.53588413250932        0.44174313545983
H            5.42300623423773        0.00212661880205       -0.35076370495532
C            2.55913693915244       -1.43717901955227        0.60006955328596
H            2.77604409365036       -2.39814989036213        1.02608614525338
