23
 energy: -44.051075832882 gnorm: 0.000780462478 xtb: 6.6.1 (8d0f1dd)
N           -0.53719636910189       -3.42859748110572       -1.14284459950634
C           -0.61910325496554       -2.31901445667185       -0.86541620623878
C           -0.72104902327130       -0.94620821587758       -0.55201082638641
C           -1.91228031884398       -0.32399625931677       -0.29936431156724
C           -1.90174007204827        1.06932224609975        0.24528568928557
N           -0.80135989140881        1.83246155922364        0.21860304073485
C            0.32878151755303        1.29142356370037       -0.11076691377067
N            1.32377290803820        2.05408836649735       -0.58521955241557
C            2.56948193884844        1.74452614747520       -0.75343467656568
N            3.30535660720846        0.76856691858276       -0.22606252219243
C            2.77872511162517       -0.32599026280910        0.27944566261621
N            3.54617250749625       -1.10692687556059        1.05279303281929
H            3.23904900611768       -2.03911042446370        1.27025546594072
H            4.50678285008715       -0.84618200695824        1.19157338993755
N            1.57785912483528       -0.84421619608897       -0.06033580169710
C            0.48135767917964       -0.19987799536626       -0.25150263132115
H            3.14069582100228        2.45256556259765       -1.34628057911548
C           -3.16736761942610        1.33681838106142        0.67460332162227
C           -3.99610420006711        0.20033649531152        0.35791902932458
C           -3.25957604737298       -0.78752196528176       -0.22644183494836
H           -3.60164009440597       -1.74121895341229       -0.58042635832201
H           -5.05012021101703        0.15625356149379        0.56809440279313
H           -3.50288812695985        2.23284513456890        1.15765758867231
