25
 energy: -47.504654965523 gnorm: 0.000784948137 xtb: 6.6.1 (8d0f1dd)
N           -0.86123107810659       -3.55805785900931       -1.14313903216569
C           -0.69194040776809       -2.48981211079377       -0.75664291058564
C           -0.51157515319814       -1.16560268758642       -0.31873283846211
C           -1.59499275029577       -0.28284798462159       -0.20914189935574
C           -1.36650988993856        1.04121198202902        0.47354848748069
N           -2.51993316680739        1.64940687860027        0.70647283123069
C           -3.47115185515219        0.83870025439096        0.18833132096280
N           -4.75477707883456        1.19237745206391        0.25317285580504
H           -4.98836895734500        2.06468596633370        0.69556529764666
H           -5.47675834702111        0.60169687855467       -0.11870499838432
C           -2.95336871144812       -0.36465136784451       -0.37601772685305
H           -3.52831001895818       -1.15883069027116       -0.80908107599854
N           -0.17306198392809        1.52317650446946        0.71968276834167
C            0.86634436901536        0.77340177907195        0.37112020126125
N            1.98351820350957        1.36427051320471        0.06847928726118
C            3.20611358272590        0.89645499968497       -0.14943844093993
N            4.00068381633182        1.71618649124742       -0.87359470620417
H            3.63983195991634        2.61829618821910       -1.13166312888689
H            4.98502463157540        1.53723952984367       -0.95065955463711
C            3.73616521218514       -0.27780897369842        0.42069451826726
C            2.93220336852227       -1.33027110949473        0.82775248840008
N            1.68106147166407       -1.54262620312442        0.50257042785370
C            0.73152614523685       -0.71263469941568        0.15872820882081
H            3.39200058330257       -2.16561439018950        1.34467880534565
H            4.81012670641152       -0.38164048615850        0.48824638569628
