28
 energy: -52.269797548791 gnorm: 0.000702456278 xtb: 6.6.1 (8d0f1dd)
N           -1.36446328641461       -4.01449562287052       -0.00239162778332
C           -1.09116783836508       -2.90088025666927       -0.00014043986549
C           -0.68035065334232       -1.54926364880004       -0.00124557007932
C            0.68590437060152       -1.25620911251806       -0.00228737305499
C            1.11272153667023        0.15036955561830       -0.00236723263503
C            2.50712012864046        0.15858414497376       -0.00290198941280
C            3.39095902713349        1.23633990714119       -0.00160588283880
N            4.19455994170659        2.05921230306444       -0.00642978192613
C            2.94229355488995       -1.21045245059534       -0.00383537810376
N            4.22481600263730       -1.58782957779557       -0.00472290004413
H            4.47227981350746       -2.56175934861150       -0.00516526648019
H            4.95252667353980       -0.89240806863525       -0.00503681540046
C            1.81439213624792       -2.05537012842230       -0.00324464209252
H            1.83476917049758       -3.12798980053692       -0.00338821025913
C            0.15943149711749        1.16713365918766       -0.00134644056702
C            0.60782037624161        2.50742402908747       -0.00095027234672
N            0.97222343907391        3.59553465342539       -0.00176332195905
C           -1.22737865143564        0.88135175662593       -0.00041512216760
C           -2.10518101486566        1.96708422103205        0.00079128614835
C           -3.49571125895692        2.01119598599957        0.00198015919606
C           -4.38116448529674        0.95055102520525        0.00212409217603
C           -4.05396375960611       -0.41197031173072        0.00116305703709
N           -2.89776993265654       -1.01202886092719        0.00018235351077
C           -1.65788549740248       -0.53603618207234       -0.00048629342753
H           -4.88496101537780       -1.11216240696854        0.00128288567089
H           -5.43692418823790        1.18657175366926        0.00306124427896
H           -3.92840493950653        3.00346588053917        0.00283928231743
H           -1.62003222044097        2.93721991148413        0.00083874810841
