28
 energy: -51.477016583885 gnorm: 0.000447896256 xtb: 6.6.1 (8d0f1dd)
N           -0.99226601921960       -3.87761121960808       -1.03220362978821
C           -0.98315328446120       -2.76479226998795       -0.74857342705601
C           -0.96190596682898       -1.39956399527575       -0.39971168507714
C           -2.12461993144069       -0.72392636079518       -0.16600383029419
C           -2.10608664596444        0.70269020249647        0.20091521796141
C           -3.40018874978602        1.08999440047890        0.39374614949791
C           -4.24649985626901       -0.05294484928971        0.16082234549188
C           -3.49528513269908       -1.13708125484589       -0.17730483436027
H           -3.83504515094222       -2.12893190287608       -0.40613250300148
H           -5.31829697264996       -0.03031834543254        0.24727049128890
H           -3.74422987917514        2.06999834677663        0.66440766777793
C           -0.86867221870006        1.39301285213087        0.20559880039288
C           -0.84882968024432        2.78375596509584        0.42470056556351
N           -0.85390338965065        3.91548491735859        0.61814219401642
C            0.32579243192615        0.72926189783321       -0.05121120251803
N            1.41406646909870        1.49221664997404       -0.23185946129931
C            2.67035097473263        1.17106641424228       -0.29946612702597
N            3.31009769267664        0.06541244251262        0.16388140777258
C            2.76006696286400       -1.10093231483854        0.30995404849866
N            3.53595901615864       -2.06530888477453        0.84196135994020
H            4.46812606205438       -1.82455343934262        1.12929732996230
H            3.20064610644592       -3.00234691502729        0.97072017415076
C            1.42391464444242       -1.51608019368017       -0.07185478363719
C            0.31935081484636       -0.73509835204179       -0.21380861889455
H            1.28739346242025       -2.59009455779333       -0.14283365220498
N            3.50285895080709        2.10864018874130       -0.80225116620286
H            3.12300779013328        3.02415873772629       -0.97032457149856
H            4.49036186232570        1.99852462374313       -0.65575091415781
