30
 energy: -55.712999353904 gnorm: 0.000948679241 xtb: 6.6.1 (8d0f1dd)
N           -0.78645833424156       -4.21672639589121       -0.47694572669827
C           -0.44038117266836       -3.12901539697104       -0.34949739355339
C           -0.01399446886422       -1.79409440704517       -0.19395538738078
C            1.32871649895425       -1.52458829122590       -0.10969125628626
C            1.80293683877287       -0.14557079140301        0.05959010526517
C            3.18545750324637       -0.19872243145449        0.13064141689568
C            4.08312420267682        0.85651925659989        0.29183529790447
N            4.85980428741088        1.69347696612343        0.42738660656373
C            3.57616739607004       -1.58401050984393        0.00702594326972
C            2.47230170415744       -2.37184321554703       -0.13802348265603
H            2.44511457309386       -3.43889672207558       -0.25015073715477
H            4.59948237214797       -1.91343816816023        0.02927117715148
C            0.86768958229853        0.90050354877642        0.06924073559432
C            1.28153933317087        2.24732794005277        0.15878523655889
N            1.59879915529921        3.34679308252640        0.23637968248273
C           -0.50826717064792        0.65156775547368       -0.04424238137405
N           -1.25573887541635        1.74900049164681       -0.14008430999690
C           -2.54712829631616        1.94105311807560       -0.17515999798328
N           -2.89683418113002        3.22050293462772       -0.44994819161133
H           -2.14980097682758        3.89042916639258       -0.51804671091004
H           -3.84131528209521        3.54352993656340       -0.35070675736717
C           -3.60229029221336        1.01839970304670        0.07569691903666
C           -3.50153877892738       -0.34926487824537        0.18001237459449
N           -4.62106621783255       -1.07492656227284        0.42840219978326
H           -4.58725821288107       -2.07663991980613        0.46282305427003
H           -5.51228313485211       -0.62300711329054        0.51884322461733
C           -2.30482650317921       -1.11604394744743        0.01625942349707
C           -0.99607816874530       -0.73674237084516       -0.09474576260517
H           -2.48038177375814       -2.18777081375476        0.01819301159533
H           -4.59056474940273        1.44814510027434        0.18049421779706
