23
 energy: -44.044683755819 gnorm: 0.000661441285 xtb: 6.6.1 (8d0f1dd)
N           -0.45825933195161       -3.41694277875302       -1.14812020921160
C           -0.54168057507293       -2.31847007740602       -0.82635366606197
C           -0.65145553036224       -0.96286241279198       -0.45715691875142
C           -1.88987263305497       -0.35282626774997       -0.25247402184919
C           -3.20894635982042       -0.76583172859215       -0.22912340234032
C           -3.90962823924834        0.26566886286286        0.41649006476810
N           -3.13937078508309        1.26833876383291        0.85585168050110
C           -1.90297383978839        0.98137698507639        0.46170619727782
N           -0.83070141571482        1.70541175052857        0.62168942036002
C            0.31820112004256        1.24334409999855        0.14786157992539
N            1.22533609615807        2.07728268263386       -0.26693947390634
C            2.48300658700930        1.87840759167953       -0.62535494370939
C            3.32430473601172        0.85912757302540       -0.25160733272119
C            2.85591720748551       -0.36926516541390        0.29567663882294
N            3.71756602620522       -1.20946465191399        0.90188371507096
H            3.40501106594587       -2.13897515475844        1.12525432246721
H            4.69971063942920       -1.00307942993032        0.92969123629053
N            1.64634544540153       -0.83641641347250        0.07287984802427
C            0.50336983809935       -0.23441709875767       -0.10106044056470
H            4.38506699916457        0.95349290584814       -0.43974350575307
H            2.89499113142649        2.70800004945021       -1.19093707538821
H           -4.97101571178020        0.30320001367639        0.59203085945790
H           -3.62207537890291       -1.66979378017264       -0.63061923861027
