28
 energy: -51.474584108966 gnorm: 0.000886871196 xtb: 6.6.1 (8d0f1dd)
N            0.85762035791181        3.85006270310077        0.00074750606931
C            0.78145616473294        2.70394158087689       -0.00176820617062
C            0.67877003456545        1.29800591203953       -0.00306248532984
C            1.82473482564378        0.52664769198934       -0.00227011117343
C            1.67618192594331       -0.94843376209693       -0.00262377845609
N            0.48865182821795       -1.54943028896435       -0.00215567414606
C           -0.60788799978825       -0.81760671262784       -0.00256692093756
C           -1.79277897639060       -1.60890205599666        0.00011927866189
C           -1.54584015270066       -3.00751243154637        0.00290905674069
N           -1.42546757753455       -4.14801270371757        0.00528493306875
C           -3.13455388255882       -1.26007009361723        0.00164922006625
C           -3.72196008159439       -0.00953090196380       -0.00064646854098
C           -3.09415821617907        1.23834142049768       -0.00640359058918
N           -3.89040993214856        2.33932476103435       -0.03076794433207
H           -4.88774626620170        2.24718438025357        0.03734142380506
H           -3.49008647652106        3.25826658079785        0.03145952138012
C           -1.70726065377793        1.48209765664774       -0.00712663474483
C           -0.60146439870425        0.65258220187636       -0.00452320656294
H           -1.46121304148762        2.54060794634898       -0.01058886784770
H           -4.80471189117112        0.00981640825187        0.00079140188556
H           -3.82035643676163       -2.09964208578479        0.00590138533678
C            2.95607411561408       -1.44089024782774       -0.00206243441869
C            3.79504441784859       -0.28243204859030       -0.00139318196678
N            5.13113725715057       -0.28175498145831       -0.00075901537638
H            5.64840904136109       -1.14196650494634       -0.00064946986418
H            5.61324624050252        0.60011021753739       -0.00039905995105
N            3.11309678731594        0.87878421167282       -0.00128264060142
H            3.27914034851223       -2.46113604258697       -0.00213072010458
