28
 energy: -52.268959896441 gnorm: 0.000702977285 xtb: 6.6.1 (8d0f1dd)
N            0.35437211611068        4.39960414195145        0.00015545051462
C            0.22274208924188        3.25931308421786       -0.00049903656458
C            0.00897711939786        1.86410968922682       -0.00020948798624
C           -1.32638590785328        1.42013108916717        0.00032076524239
C           -1.59506573161828       -0.02228309815736        0.00024551446069
C           -3.01882574084230       -0.17419618340185        0.00046555145020
C           -3.72659190083137       -1.37868697640794       -0.00063260997538
N           -4.33262715144376       -2.35488437800143        0.00209946932984
C           -3.56524088698765        1.10192437308893        0.00100265498866
C           -2.53819199790610        2.07505683751966        0.00075682983276
H           -2.68686988531108        3.13810240724218        0.00083779216454
H           -4.61873943032709        1.31755936755042        0.00118201838369
C           -0.56236168069361       -0.92085793358841       -0.00025165036300
C           -0.83619337857677       -2.30814791556883        0.00026417486721
N           -1.02968916189138       -3.43886773333057       -0.00138955717222
C            0.81672205280686       -0.47358867744692       -0.00051287702417
C            1.76687977395746       -1.46012140256501       -0.00036329076389
C            3.20019217338402       -1.40256102386791       -0.00031147741880
N            3.99666273427110       -0.35857480524802       -0.00121939657173
C            3.62762000360049        0.91711530200148       -0.00189359909199
C            2.38952609288320        1.51622764818354       -0.00146409311580
C            1.08421082727546        0.96760967041731       -0.00066093574327
H            2.41078028115933        2.59978430913326       -0.00184651729361
H            4.48450526726311        1.58280461936290       -0.00273553726387
N            3.83657829284094       -2.59175628486534        0.00066143790617
H            4.84173255896180       -2.58676903991288        0.00047822022362
H            3.34086656477412       -3.46458150119460        0.00097529736894
H            1.38435593055437       -2.47538969560591       -0.00018524858477
