26
 energy: -47.230610399755 gnorm: 0.000686665408 xtb: 6.6.1 (8d0f1dd)
N           -0.06173404508089       -3.45856714553526        0.46550555866120
C           -0.19791416969241       -2.32622442490253        0.33989535148791
C           -0.35401146746139       -0.93216392445682        0.19366257436962
C           -1.59876591534067       -0.32979927915105        0.13474309664440
N           -2.82144531837606       -0.85291287074733        0.19112525275392
C           -3.66098501954840        0.18664817756185       -0.01535955672383
N           -4.98293202559999       -0.01392387754481       -0.02018867063243
H           -5.32530882081499       -0.94611395568074        0.13409537714925
H           -5.62181743846403        0.74184910252914       -0.18667054356973
C           -2.99515361707362        1.42875349479398       -0.21707254018573
C           -1.65473588443262        1.13685037425923       -0.11033856969326
N           -0.57429319439573        1.90654835306548       -0.16690127463260
C            0.62097296193891        1.34409421927950       -0.05398272030069
C            1.67998662612589        2.25637252347662        0.08419878925704
C            3.04087877707128        2.03990586311937        0.21720007320322
C            3.74219929011862        0.85600782261449        0.10769844641732
C            3.19366848605574       -0.42134254695488       -0.12898371382918
N            1.92958132650849       -0.79888379638953       -0.04395128704180
C            0.80683523201412       -0.12325981622402        0.03232094668457
N            4.03383501250060       -1.44520655023474       -0.41605928135179
H            5.02984902242265       -1.33677972108057       -0.36280294487090
H            3.63667222315677       -2.36771944640331       -0.46479060263468
H            4.81947577516081        0.90150219999608        0.20105938651619
H            3.63886267903107        2.92555977531467        0.39400318946351
H            1.34116170794511        3.28339898045397        0.13670088928704
H           -3.46096799596879        2.37529944904141       -0.39860207412917
