26
 energy: -43.224529712310 gnorm: 0.000734682619 xtb: 6.6.1 (8d0f1dd)
N            0.43581108100091        3.45797946335960        0.04008184498197
C            0.53060475344033        2.31370135921151        0.03213471566808
C            0.67355219975232        0.91175612013388        0.01948742343473
C            1.96967448147731        0.34097718617344        0.01348891845637
C            2.08675891367041       -1.12334921346446       -0.01718062112374
C            3.48795008788412       -1.42384647397872       -0.02655181806713
C            4.16051157154988       -0.24004214980431       -0.00193346919407
C            3.23348675614832        0.85837943852038        0.02279437018310
H            3.50481836264312        1.89708465730144        0.04429507325756
H            5.22978761288965       -0.12045615246410       -0.00096051301250
H            3.90576470902764       -2.41237523679063       -0.04835881791585
C            0.98085518409792       -1.90633583971306       -0.02862126500903
C           -0.33725035905013       -1.34808763259013       -0.00692921066019
C           -1.37993664500086       -2.24008358255253        0.00505745362435
C           -2.78150298764183       -2.02078538080203        0.03786296600965
C           -3.44801843720561       -0.84365455293117        0.03986538956901
C           -2.86295897088395        0.47793467388743        0.00463347536208
N           -1.61799061358621        0.82865250018332       -0.00720173313224
C           -0.47100606170943        0.12431564991488        0.00733805267592
N           -3.74089843576390        1.51737603451485        0.02965032325782
H           -3.34828729092374        2.43763344014883       -0.07595043567012
H           -4.71602412978020        1.38042206221122       -0.16350415165689
H           -4.52980187489696       -0.87068752531617        0.07008979555024
H           -3.38025445097538       -2.92328734610719        0.06244156337843
H           -1.09757777811106       -3.28740708581389       -0.00430509612040
H            1.07110207654733       -2.98494029013231       -0.04969318364717
