29
 energy: -51.203688955300 gnorm: 0.000612870018 xtb: 6.6.1 (8d0f1dd)
N           -0.26948225253402       -3.90120285481630       -0.01260505335160
C           -0.11956360451146       -2.76060837784118       -0.01665623030865
C            0.11421624574847       -1.37384431073728       -0.01798744112001
C            1.45190165944844       -0.95446009048014       -0.01711525433725
C            1.75061964823725        0.48755588418370       -0.01415880626238
N            3.06531095689045        0.70396937516031       -0.01256301122562
C            3.63042649187400       -0.52204486421323       -0.01460311405923
N            4.96246757709677       -0.65096302456323       -0.01217876548477
H            5.39503498081543       -1.55628320491489       -0.01906778614566
H            5.52456645878771        0.18166485903123       -0.01359603478725
C            2.67701022716088       -1.57943876232615       -0.01726910706358
H            2.89144320003658       -2.62927234238034       -0.01920677647622
C            0.71236304780493        1.40652438344496       -0.01179083092224
C            1.04707361536629        2.77648637925060       -0.00606141669323
N            1.33526290296922        3.88807750124034       -0.00158629282468
C           -0.64992662233686        0.98528857737150       -0.01208293300141
C           -1.60108283668424        2.00061167090815       -0.00619096126434
C           -2.99440049768668        1.97561915547179        0.00137569449008
C           -3.85155625924161        0.90587425502141        0.00056867196611
C           -3.52063952831772       -0.46363129222810       -0.01214075324120
N           -4.56165189115816       -1.34590495304411       -0.06100801540373
H           -4.38458598494285       -2.32699496050747        0.06315990592737
H           -5.49701816887605       -1.01958389536228        0.10253569125103
C           -2.23860583173231       -1.00315320705832       -0.01864667138079
C           -0.95186089822204       -0.44810056805235       -0.01698015836211
H           -2.23306588096377       -2.08961994127921       -0.02695376174543
H           -4.91154375887151        1.12860012642656        0.00704292029856
H           -3.46339635127729        2.95146040446995        0.01013376231779
H           -1.17894724048033        2.99929234062431       -0.00473181398940
