25
 energy: -48.298387615343 gnorm: 0.000812985000 xtb: 6.6.1 (8d0f1dd)
N           -0.26922534893407       -3.85477131457886        1.05056943526553
C            0.05271911685114       -2.78576468722879        0.78585638425508
C            0.38545704857360       -1.45521917870239        0.45986366152443
C            1.67093583211818       -1.08744759434196        0.16556348889017
N            2.78682242173037       -1.86083445869196        0.11373403370827
C            3.76207884166728       -1.04786474703332       -0.23323712469173
C            3.35132453374055        0.30497979226300       -0.42730077667108
C            2.00176353884073        0.31218449659969       -0.18261355029661
C            1.00446553845586        1.30588519010413       -0.09041490388853
C            1.35468340276218        2.65947264324047       -0.27642658583024
N            1.67642522700417        3.74522356305761       -0.45708714838672
C           -0.30212926611542        0.95945039130126        0.24147496955961
N           -1.13964140971954        1.94153283185535        0.59333832144236
C           -2.42189213981365        1.93586149073120        0.70889611040086
N           -3.32301962653921        1.12407270835612        0.15594727273969
C           -3.09798261637276       -0.11019364626998       -0.20753536023337
N           -4.07228802143017       -0.72446807134550       -0.89746828107653
H           -4.01348010075264       -1.69623500259166       -1.14447348537935
H           -4.89607367142910       -0.19719014505071       -1.13199817659612
C           -1.94340180752108       -0.91440821860584        0.13740273968290
C           -0.67014574937165       -0.47233501001030        0.33671992039520
H           -2.10034531529879       -1.98774371506605        0.11803390745142
H           -2.84966834681834        2.79652209137291        1.21292672771788
H            3.97923841043613        1.12805909724070       -0.70383425886023
H            4.76303326413452       -1.42667898090457       -0.34528911722286
