25
 energy: -47.524788443371 gnorm: 0.000577316899 xtb: 6.6.1 (8d0f1dd)
N           -1.03995790382728       -3.56558687426484       -0.84446074142035
C           -0.85844940560276       -2.46097425125848       -0.58880840608244
C           -0.61662663325531       -1.10838080367018       -0.28195526879198
C           -1.68569568164215       -0.22227438645510       -0.15426990697858
N           -2.98886612680960       -0.39814995345052       -0.29076623442122
C           -3.50714791911552        0.82311180498108        0.02426594041149
N           -4.81932903557980        1.03502721759072        0.00144985261086
H           -5.43128353595542        0.27752908038329       -0.24466978397039
H           -5.17698395880574        1.94319454187316        0.23744561442740
N           -2.62656677056488        1.78923632733720        0.35277899348014
C           -1.44199926549262        1.18282725057766        0.25749682396213
C           -0.15975018447556        1.65880860917770        0.40266197067563
C            0.92499576162544        0.80912984333736        0.15777395790583
N            2.09880957436291        1.39589649856160        0.02902746950032
C            3.30702486661069        0.88455100353505       -0.08487199788448
N            3.76500322410092       -0.27438703356797        0.41290396170174
C            3.02990389987619       -1.33829280481333        0.58080999970798
C            1.69992489554922       -1.57922294020478        0.21622336656671
C            0.69427534662749       -0.64868008127901       -0.03526089134582
H            1.38548611200870       -2.61641901588705        0.24589826416901
H            3.57203888458324       -2.16976187509598        1.02148559691572
N            4.24417441838108        1.68556408247401       -0.62675616617522
H            3.99848871052295        2.62947106074031       -0.86651269565768
H            5.20783426033043        1.40895148737883       -0.56663231838398
H            0.03198874184885        2.69864760439806        0.61134453587670
