25
 energy: -43.513903638383 gnorm: 0.000833468717 xtb: 6.6.1 (8d0f1dd)
N           -0.38662146515320       -3.60480567571414        0.00461938707689
C           -0.30743407786048       -2.45931482373048        0.00340625994374
C           -0.21758402023743       -1.05121432667535        0.00358807251127
C           -1.37816028642596       -0.29613205732306        0.00515362339652
C           -1.24970344641005        1.18102522059198        0.00544482697800
N           -0.07427926023444        1.80121861153934        0.00397561032818
C            1.03774385873234        1.08292787233833        0.00237241966366
C            2.19553112856801        1.89819010886995        0.00107282471708
C            3.53374751344269        1.60119664626486       -0.00044854653183
C            4.14827184245507        0.34677022717845       -0.00116296161899
C            3.53584317007006       -0.88803813785596       -0.00057157616047
C            2.17894373682791       -1.19405268671956        0.00086778154830
C            1.04451708158592       -0.38595972132806        0.00221000299881
H            1.96049312977394       -2.25733401389769        0.00099856719121
H            4.19670017125841       -1.74599499093260       -0.00130568009785
H            5.23086654127375        0.34780783610245       -0.00230648512778
H            4.20554673574987        2.45058357095620       -0.00112039286491
H            1.93248483917807        2.94940166951488        0.00147159338919
C           -2.54155289983525        1.65362647121916        0.00821951910263
C           -3.35995909088186        0.48859914982601        0.00949687787498
N           -4.69745821341453        0.45628709682255        0.00882210271151
H           -5.15266940475220       -0.43944403758507        0.02031242456373
H           -5.23816505580865        1.30127423596788        0.02684502203245
N           -2.65783718890374       -0.66535544243775        0.00749291052147
H           -2.88189482749818        2.66863332150804        0.00927819885232
