25
 energy: -43.496654151106 gnorm: 0.000476112616 xtb: 6.6.1 (8d0f1dd)
N           -0.33991874513577       -3.66826289623795        0.00249833121379
C           -0.23982369611171       -2.52352822378175       -0.00065835044732
C           -0.17149534861162       -1.11463746323647        0.00025144695129
C           -1.36529347223954       -0.39071823587351        0.00040235837531
C           -1.25981397376104        1.09774950274120       -0.00011407099650
N           -0.10535198854791        1.73631568260664       -0.00052215994885
C            1.03345527192483        1.06234985696848       -0.00048670677594
N            2.08084387698928        1.87688328379820       -0.00074257070902
C            3.36230463606351        1.64258679442044       -0.00096937905015
C            4.08595971347138        0.44482217249937       -0.00131056781659
C            3.56407297723226       -0.83576909320667       -0.00119443164970
C            2.22699664454502       -1.20977039359193       -0.00062237753765
C            1.06676288564240       -0.43451643627460       -0.00016655415909
H            2.05060563220597       -2.28134189742316       -0.00050719065999
H            4.27744899394242       -1.65053607723783       -0.00145876931483
H            5.16408932818232        0.53830981871367       -0.00165733793702
H            3.95156179821537        2.55702430644865       -0.00094413474710
C           -2.54463775161474        1.60056448916319        0.00000204707210
C           -3.43318629659026        0.49947612729032        0.00058042077821
N           -4.77230013310584        0.58557185888917        0.00077998446405
H           -5.33581496665176       -0.24598586948081        0.00164831252791
H           -5.22442933825863        1.48242475803872        0.00106445097044
C           -2.70027953507014       -0.71751824530160        0.00076585476062
H           -3.12651915779274       -1.70315350120846        0.00118407181836
H           -2.82495388362316        2.63485737847675       -0.00027645338228
