25
 energy: -47.507712848866 gnorm: 0.000461191357 xtb: 6.6.1 (8d0f1dd)
N           -1.39395162288094       -3.24359198403015       -1.52094780822878
C           -1.31506465475164       -2.19036911084890       -1.07153912904056
C           -1.15371839838353       -0.90605873316904       -0.51423574717904
C           -2.20882111295787       -0.12379003111760       -0.13241605473450
N           -3.54389643104305       -0.35409755764618       -0.17332776157720
C           -4.10159960720762        0.76899238466968        0.23934133109665
C           -3.17976835426492        1.80357076921299        0.55639901147796
C           -1.93551241191803        1.25386044243972        0.36205978579076
N           -0.71224593129413        1.78423249484424        0.40268657055490
C            0.31741823328790        1.05138555319251        0.05946443802154
N            1.47023134019775        1.69368552177395       -0.06980489181148
C            2.68554553322204        1.24624988796569       -0.22180301070613
N            3.58255360746652        2.10061044536772       -0.75278648319733
H            3.29123321100683        3.04822741316091       -0.91681479061230
H            4.55964968476585        1.87893026189664       -0.68391424740578
N            3.21128041006813        0.08227603123697        0.21430829887784
C            2.54071839316447       -1.02736913609180        0.35104447444395
N            3.20927759646840       -2.06187702415050        0.89469386922873
H            2.77897883131988       -2.96054903056030        1.01498095618349
H            4.15291133667006       -1.91304820917457        1.20610786217095
C            1.18797018093131       -1.29919372404953       -0.07153763652023
C            0.17813853314869       -0.40359814671463       -0.25793766197081
H            0.93211546991671       -2.35250875835036       -0.13577793686031
H           -3.42053369529192        2.78897137600575        0.89849330659993
H           -5.17402980585162        0.83575851674268        0.30979099358629
