25
 energy: -48.295156937114 gnorm: 0.000706380353 xtb: 6.6.1 (8d0f1dd)
N           -0.30748236826925       -3.92230398753023       -0.96122849118487
C           -0.01316646628656       -2.83817839283619       -0.72176243648103
C            0.33542437165622       -1.50828763688293       -0.42013552048650
C            1.64483616785512       -1.16813687614796       -0.14113813207528
C            1.99506986379432        0.22930166119257        0.24604608080840
N            3.27932301859269        0.32397167402806        0.52204942259554
C            3.79351661094729       -0.92053720847363        0.33504820991632
C            2.85902055567169       -1.86057405924696       -0.06716883266689
H            3.02656963748601       -2.89879704364669       -0.27201434671897
H            4.84377953401760       -1.07959238274831        0.50359072845816
C            1.02388279087524        1.23408987180759        0.19024749085509
C            1.36484818746932        2.58395783088720        0.42764008737375
N            1.62806852136821        3.67819125421249        0.64360216413503
C           -0.28890528361067        0.91643500839914       -0.19498981585955
N           -1.08229330016895        1.90905060896158       -0.55346031685941
C           -2.36202688484499        1.93158225159769       -0.76425688968347
N           -3.30026276493320        1.15374400772766       -0.25392288244941
C           -3.11615923783690       -0.07271097265942        0.18418536491550
N           -4.14167387916731       -0.62286520802023        0.85635528970430
H           -4.96268548788225       -0.06438165290668        1.01591262209668
H           -4.12795517236284       -1.58390759207130        1.14730602785784
C           -1.98124697543333       -0.91108412465120       -0.08921840660288
C           -0.68779814953131       -0.51516001657729       -0.30542559370649
H           -2.16100477988318       -1.97919299207935       -0.01602351526925
H           -2.73012967372302        2.79395965116424       -1.30916586347247
