26
 energy: -47.228694764473 gnorm: 0.000870499528 xtb: 6.6.1 (8d0f1dd)
N           -1.44298319435979       -3.33515929342311       -1.31442412050652
C           -1.31945547782684       -2.25844160355002       -0.93474831938373
C           -1.15651032996533       -0.93971828792210       -0.46360324132650
C           -2.22113408919372       -0.14907539328402       -0.14540787730659
C           -1.96329272389595        1.23747793134455        0.33162019824707
N           -0.73584088896241        1.77578784434611        0.35598589472398
C            0.29475939834428        1.04496657652445        0.03532857374357
N            1.44641507962615        1.70203728333174       -0.13207886770930
C            2.66402693314956        1.26521617153341       -0.23277192144040
N            3.20591311309084        0.10548722367536        0.21809424835021
C            2.55552584245286       -1.01176983812637        0.34688461587908
N            3.24421844403433       -2.04640834025098        0.87005646070422
H            2.81874257521272       -2.94407050519645        1.01169362101219
H            4.18409386095401       -1.88419492251650        1.18518176057014
C            1.19885584383246       -1.30323017881871       -0.06258279622328
C            0.17905773015963       -0.42082232430506       -0.22712914737568
H            0.96417418660712       -2.36060971288085       -0.14329098109474
N            3.57331472078228        2.12236183946305       -0.74876661380435
H            4.54850852718452        1.91468271617427       -0.63157587332456
H            3.27848674635811        3.06794700193235       -0.91685582595730
C           -3.17857552059049        1.80249487851393        0.58875859829273
C           -4.19356577631728        0.82631527772508        0.29529175771389
C           -3.63460194865959       -0.33502973687464       -0.15230722811749
H           -4.13788770684069       -1.23710380335406       -0.44504628895062
H           -5.24759718938979        1.00835485875651        0.41325248375137
H           -3.36067580688705        2.79919868828213        0.93889488313261
