24
 energy: -43.784106511534 gnorm: 0.000471333732 xtb: 6.6.1 (8d0f1dd)
N           -1.82557727846306       -3.40250211089645       -0.00062979555601
C           -1.49025252808163       -2.30498934198282        0.00160915947992
C           -1.08419690322993       -0.95330288048594        0.00023874337457
C           -2.07013865257464        0.03778396371048       -0.00010121773639
C           -1.67493996384805        1.46067856956633       -0.00017952097190
N           -2.81486121028922        2.19048371766268       -0.00033866577593
C           -3.76902253447606        1.27829809099857       -0.00030689466445
N           -3.39185088069416       -0.02336464687437       -0.00011928495623
H           -4.80981699511121        1.54690013155364       -0.00043823662639
C           -0.36078177401919        1.81983023756456       -0.00017824254326
C            0.65474298905032        0.82780155973358       -0.00019614711998
C            1.95199795582657        1.29923045188893       -0.00067082212794
C            3.20642750004359        0.63378158990448       -0.00109965608070
N            3.47225613849633       -0.66176021872515       -0.00032129475390
C            2.59536855462529       -1.64343778355133        0.00086216833979
C            1.20972091119418       -1.64929983108281        0.00090313335107
C            0.27779159520303       -0.59889015250872        0.00017824408263
H            0.76599510812705       -2.63830836844278        0.00151406893897
H            3.07544492902336       -2.61727701770996        0.00160554167309
N            4.31177425814524        1.41267423345119       -0.00130586260406
H            4.26165892614149        2.41445233171212       -0.00603857369771
H            5.20666600082511        0.95585749030607       -0.00377879585810
H            2.03964529674761        2.38098628774351       -0.00086227189944
H           -0.08267137886202        2.86312335386421       -0.00028587526768
