28
 energy: -50.693822327053 gnorm: 0.000874323305 xtb: 6.6.1 (8d0f1dd)
N           -0.96231638336559       -3.60486913383736        0.10192905718206
C           -0.87806868785399       -2.45903020718622        0.06240121656617
C           -0.77632011768802       -1.05719254716730        0.01693267021187
C           -1.94266807046754       -0.30080163677694       -0.00141132948272
C           -1.86083124831710        1.17207269989264       -0.05581045444190
N           -3.10881332670681        1.65298104646140       -0.06851587919326
C           -3.87176310771773        0.54311421389304       -0.02340360876155
N           -5.20438338509530        0.59937631320743       -0.01582584852179
H           -5.72669388851572       -0.25697677131105        0.01262117241941
H           -5.66040497788338        1.49217847730158       -0.05454268248084
N           -3.22249397507493       -0.65016217225843        0.01790350052848
C           -0.63979227975731        1.79797992612699       -0.07508875916043
C            0.55231438623530        1.05342529884504       -0.04361483483648
C            1.73586748112957        1.78374747069679       -0.03324410069765
C            3.08624947859990        1.39284529179605        0.00996354961900
N            3.62942337777102        0.18495579769194        0.00577860832169
C            2.98686847896557       -0.97073987880677       -0.03289157096674
N            3.81538706215826       -2.04320728846131       -0.08837569006560
H            4.80469201558533       -1.88091940569926       -0.03574340142076
H            3.45951358247716       -2.97921831772821       -0.03092385390139
C            1.60381539178270       -1.24629329681024       -0.01986646090616
C            0.49233401950228       -0.41798905442548       -0.01186397656275
H            1.37511635519482       -2.30677742508547       -0.01493880404133
N            4.01259464744900        2.38886759630281        0.02405759840161
H            3.74436596845135        3.34387088139542        0.17110726225332
H            4.97455748045093        2.12552789457408        0.14110956619577
H            1.59666082599958        2.85936724734221       -0.05120773644468
H           -0.59134343171254        2.87600629552533       -0.10710136511275
