23
 energy: -48.848274214378 gnorm: 0.000417588554 xtb: 6.6.1 (8d0f1dd)
N           -2.88538467417825       -3.38711122842992       -0.93058436453094
C           -2.39842479734977       -2.38437822925397       -0.65306658204260
C           -1.88936526633203       -1.12776777474507       -0.31692617678461
C           -0.56379685441449       -0.73080674664418       -0.18019836531948
C           -0.56366672597261        0.73116531505425        0.17915753384889
C           -1.88914950823448        1.12807818846354        0.31720080190776
C           -2.39783376532293        2.38457641423172        0.65426015437505
N           -2.88446859821353        3.38759506135105        0.93078323174823
C           -2.71366112492413        0.00018291824633        0.00043406724659
N           -4.03863657687086       -0.00006967784380        0.00110980616095
H           -4.54642208509840       -0.83667217704901       -0.24225014484661
H           -4.54656907357729        0.83632672135122        0.24485254157483
N            0.54730216146920        1.44614675880859        0.19799950212063
C            1.64645251902524        0.75795940998871       -0.07443009961339
N            2.69617627732142        1.27908133110709       -0.62998572187284
C            3.90113772706944        0.79835054206780       -0.81520637926124
N            4.56533063109933       -0.00021515857458       -0.00207672255511
C            3.90165250021930       -0.79873051978779        0.81157759798619
N            2.69651355671522       -1.27921196053001        0.62716872558654
C            1.64644870093046       -0.75786095624922        0.07250157651039
N            0.54710520275864       -1.44593577812789       -0.19941934089547
H            4.45791130429844       -1.23438895733025        1.63328123605468
H            4.45680259578385        1.23378487239436       -1.63743733409890
