28
 energy: -46.666179770839 gnorm: 0.000785673527 xtb: 6.6.1 (8d0f1dd)
N           -1.37972377472143       -3.45539852767015       -0.27621136395790
C           -1.23623289163527       -2.31898371111509       -0.18978448130877
C           -1.09524815658309       -0.92207046290018       -0.08539858551265
C           -2.25243369050936       -0.10321621816081       -0.07019469136375
C           -2.08057683541891        1.34265591299887        0.10709934879269
C           -3.39967473495271        1.91629240730225        0.12374175747045
C           -4.28750858003490        0.90041445941850       -0.03589681983723
C           -3.59158968564736       -0.35458023470431       -0.15603510846178
H           -4.06062004670144       -1.31155011465311       -0.28750177097918
H           -5.35885467499425        0.99477898864556       -0.06989495449486
H           -3.61360805679336        2.96193293201746        0.23908516954090
C           -0.84699718217404        1.88630210662695        0.20563403125883
C            0.34003478625286        1.07984392454537        0.11445671982503
C            1.52688723136867        1.75582595896090        0.08148810916552
C            2.87408461536326        1.29352552372707       -0.06551151836464
N            3.82015178165430        2.28135557550853       -0.14186655337565
H            3.52956926855435        3.21779160661556       -0.36106581474537
H            4.75446854944319        2.02825370330669       -0.41322922770147
C            3.28200416931222       -0.01228055432424       -0.05963404455270
C            2.45980521511543       -1.17629118132557        0.07846097386045
N            1.16904822683852       -1.29423389969169        0.07773148730466
C            0.18114823524239       -0.38243682890675        0.02027219416130
N            3.12204759269032       -2.36901084664899        0.13252835066097
H            4.08884867708237       -2.40482871682253        0.40098267428662
H            2.54778257032959       -3.17613369138849        0.31019957120167
H            4.34417065427630       -0.19908561229419       -0.15944231657334
H            1.45002385174105        2.83751428202834        0.14279968841325
H           -0.72219496959871        2.95469440030404        0.32928293378693
