28
 energy: -50.673068140945 gnorm: 0.000735495843 xtb: 6.6.1 (8d0f1dd)
N           -0.78206759674858       -3.37845694845683       -1.20704582551175
C           -0.75768007288148       -2.28311162644357       -0.86349174002745
C           -0.70029691981952       -0.93640771607777       -0.45945305683174
C           -1.84604410431384       -0.18424872533750       -0.25793774819984
N           -3.11937662400040       -0.54840110823061       -0.41319157971264
C           -3.84631156457686        0.52063962609634       -0.02565190874964
N           -5.18308231671404        0.47130396457693       -0.05996975432732
H           -5.62093196870523       -0.37277671049850       -0.38460043430474
H           -5.74014392015156        1.26163689509643        0.20806211917072
C           -3.04978935321664        1.62444884657188        0.39403027587416
C           -1.74442534617181        1.20631718209897        0.25724552454538
C           -0.49849097292430        1.80918093427919        0.39791997723799
C            0.65624187039659        1.10039483631587        0.10891069226196
N            1.77774056209113        1.79110657563991       -0.06556110811761
C            3.01543714091643        1.38306218286894       -0.25140868216825
N            3.84949455136791        2.34574280511760       -0.73698183817790
H            4.84437916809211        2.22960441820935       -0.66902969354148
H            3.48101464235011        3.27964418949989       -0.78672809070842
C            3.57272621862893        0.12920132433435        0.07417165202771
C            2.82937276661284       -1.01183077363777        0.34437308497035
N            3.43429651587246       -2.11321716260285        0.86842240143255
H            2.90359203091233       -2.96752945640266        0.83693836592140
H            4.43649255060411       -2.17900624727561        0.86898316788877
N            1.53980880385674       -1.21459287640145        0.05671427390113
C            0.56470246147143       -0.37326434327818       -0.12509306369094
H            4.65199435490239        0.05574522430112        0.11874347458121
H           -0.41600086972863        2.85628512731676        0.64816913674969
H           -3.41786918682347        2.57146271202068        0.73500799580528
