28
 energy: -56.275657041514 gnorm: 0.000868150839 xtb: 6.6.1 (8d0f1dd)
N           -0.42591003089671       -4.24609222843582        0.63249119390021
C           -0.32894479608525       -3.12488022813794        0.40852350981783
C           -0.17929209719304       -1.74515448194446        0.17018538050459
C            1.09912994839305       -1.16113147129448        0.18903259273219
C            2.34267893504472       -1.70329269594875        0.41992754438240
C            3.31180722201048       -0.69402191135084        0.18345960310975
N            4.63246292223936       -0.82792336533119        0.29322022584921
H            5.23316447141367       -0.04297510624619        0.09770413983783
H            5.03931447689940       -1.70904886621695        0.55714241094766
C            2.65032674923487        0.51641586350932       -0.20137495866827
C            3.32825148507265        1.69751117257888       -0.49959153288781
N            3.97061923244878        2.62308492331127       -0.73015118352675
C            1.27863807765857        0.25897554020146       -0.20324201077284
C            0.17730611264237        1.08306058412968       -0.40759188429797
C            0.30452428601119        2.46365465802697       -0.65925417762633
N            0.37922358901715        3.58768077445153       -0.87498174388965
C           -1.11432714307358        0.53366495467791       -0.21774483791419
N           -2.10649395366287        1.31603021611837        0.09700483068534
C           -3.39398286221903        1.00490934975028        0.27023283006591
N           -4.07767753586348        1.79744953263566        1.10723516718476
H           -3.62409242547736        2.60743047623203        1.49344769796311
H           -5.07866770308099        1.71276383091013        1.13852769838618
N           -4.09363048102990        0.10504877962737       -0.42268165016237
C           -3.52062337312847       -0.94371447893721       -0.96807400457130
N           -2.37393237943145       -1.50447111657292       -0.67893517696111
C           -1.27645300413451       -0.95857291255041       -0.20117651062109
H           -4.14178231535355       -1.50613477066537       -1.65738102483799
H            2.55497550034532       -2.71371200202836        0.71168764647035
