30
 energy: -60.516357223523 gnorm: 0.000601718088 xtb: 6.6.1 (8d0f1dd)
N            0.80033801641266        4.22960404713200       -0.80852748949466
C            0.52011965394536        3.13461593039292       -0.60959750244768
C            0.19891370918392        1.78347518684442       -0.36843279892137
C           -1.12136846563619        1.41252255010953       -0.24956483216580
C           -1.46483672918079        0.02583556834951        0.08874290823612
C           -2.83959243398795        0.01344946215635        0.21125339139362
C           -3.74059054386789       -0.99993418450644        0.52277854664281
N           -4.56416504479221       -1.76276277762295        0.77101332963380
C           -3.25026749789532        1.38732610667544       -0.08073967622678
N           -2.22170925813734        2.18271155179221       -0.34351333631897
N           -4.51138212110016        1.80719705546146       -0.08622788013827
H           -4.70413407111355        2.76930500413967       -0.30730215553343
H           -5.26254556721123        1.16816516410940        0.11286756418014
C           -0.45038535085632       -0.94893536596571        0.15667196955196
C           -0.83846775262619       -2.25953308077343        0.51649209767108
N           -1.21582506084326       -3.26494469287729        0.91931329940963
C            0.88209244669714       -0.59728111677160       -0.06008929218722
C            1.84135055044463       -1.62775750562439       -0.31708535452945
C            1.35840620061748       -2.88040411366415       -0.77273370972900
N            1.07161089154506       -3.88300124001708       -1.25080184643903
C            3.22896820535536       -1.55941365771559       -0.29899864436651
N            4.03631216976596       -0.61244964515547        0.13004675853902
C            3.72196547456831        0.64367089020017        0.36723050032541
N            4.70268140371089        1.38434480397958        0.91497410823738
H            4.59899990162792        2.37203365898335        1.06302181127780
H            5.57857455799713        0.93585045798415        1.12164056839323
C            2.51381239594965        1.32108836714579        0.01753276138405
C            1.24731732016264        0.81762959710607       -0.16227631647530
H            2.60359022238580        2.40068371194501       -0.03114226787066
H            3.75738419236867       -2.45542636201161       -0.61089912912340
