31
 energy: -54.645337104368 gnorm: 0.000404832771 xtb: 6.6.1 (8d0f1dd)
N           -0.66936646729841       -4.02986528782788        0.01651242072622
C           -0.61145286079411       -2.88044944448087        0.01916570334977
C           -0.58974671801150       -1.47556236749305        0.01775751459614
C           -1.82719631510678       -0.81763850482028        0.02006887285927
C           -1.85744701924076        0.65499721995253        0.01889250666392
N           -3.11288063212493        1.10907885644997        0.02453717244110
C           -3.88972390228167        0.00737069210365        0.02865563028501
N           -5.22445106814186        0.12031909051886        0.03625033276448
H           -5.81209417508748       -0.69273590904157        0.03175803283419
H           -5.62804013337101        1.04001863762988        0.03215147658527
C           -3.14596509328426       -1.20743047770152        0.02607317078086
H           -3.54936373105616       -2.20021140635420        0.02888829030648
C           -0.67152146576843        1.36801757895465        0.01052841055412
C           -0.74141892610797        2.77435915169310        0.01143746768259
N           -0.79367461567454        3.92255308298029        0.01570507936487
C            0.59728508830115        0.70241017190768        0.00269415947362
C            1.70540268114798        1.52810630253671       -0.01476544461446
C            3.09356858470838        1.28586710311718       -0.02074560832450
C            3.72822401233562        0.05425343678777       -0.00689186395580
C            3.15262283435279       -1.22077745055442        0.01183927299680
N            4.01745591548915       -2.28071748362590        0.07995322495041
H            4.98952042615426       -2.13286374432878       -0.12551524900642
H            3.65762537070063       -3.20651755388115       -0.07320921008640
C            1.79438623210651       -1.53372448425472        0.01790642601611
C            0.62973937955210       -0.76089497136904        0.01340581618798
H            1.60081928718608       -2.60209556233886        0.03160308923937
H            4.81200996064956        0.07921914659465       -0.01081068399568
N            3.88328241601778        2.39984140243980       -0.09199360025607
H            4.86975144254403        2.31558537108488        0.07717074382992
H            3.46821370738360        3.30212391056590        0.06034601339456
H            1.46351370432020        2.58623282375490       -0.02731765064372
