29
 energy: -55.990914594424 gnorm: 0.000892315078 xtb: 6.6.1 (8d0f1dd)
N           -1.39662237811366       -3.88092645543066       -0.73817532038873
C           -1.01639574537335       -2.81124578248027       -0.56534340586396
C           -0.53497985381433       -1.50436143815655       -0.36744999346032
C            0.84489100895300       -1.26071277120563       -0.27077898857105
C            1.93026998117579       -2.10340938141656       -0.36048794490563
C            3.09231383461167       -1.35505570083139       -0.04790123834217
N            4.34518551739486       -1.81475329941598       -0.02113559742841
H            5.10114172168027       -1.19234573727777        0.21370402134476
H            4.54386262854083       -2.77681360079686       -0.23405817992020
C            2.72207062883837       -0.00480757697156        0.24387035456729
C            3.64467874829816        0.98297969786595        0.58239900699411
N            4.47894480263221        1.72493434036686        0.85963371953428
C            1.33381666301175        0.08613315580800        0.10468486734620
C            0.46010688844480        1.16357886044408        0.17075920069693
C            0.90893934804714        2.47337957328553        0.43278713901967
N            1.25054144439538        3.54270036856812        0.66841023962877
C           -0.90704159362013        0.95328427353016       -0.15039875198353
N           -1.62283761761797        1.95124575634250       -0.57420214554775
C           -2.90541026423874        2.03292150853833       -0.87923786529286
C           -3.93845999995556        1.27753905468890       -0.37720507220427
C           -3.72959576021536        0.06216818474256        0.32900807981427
N           -2.66900662556056       -0.70944498178348        0.20377537940103
C           -1.43291575284623       -0.45015162317235       -0.14639587893274
N           -4.72602031936162       -0.44768207913907        1.08358558366666
H           -5.63340746427576       -0.01873855074650        1.09474388790457
H           -4.61902246197053       -1.37931362916667        1.44652023276049
H           -4.95517570303921        1.61944485564185       -0.51260362145147
H           -3.13867546335543        2.89377596452192       -1.49641703163385
H            1.90992144973483       -3.14717348535290       -0.60842977175288
