25
 energy: -48.297924076973 gnorm: 0.000498043330 xtb: 6.6.1 (8d0f1dd)
N           -2.94829099155351       -3.17103995704002        0.00016378266258
C           -2.34502575580839       -2.19543970706782        0.00102942331316
C           -1.60835775600871       -0.98971751488380        0.00027573841749
C           -2.26690722045714        0.22296610915659       -0.00008261893344
C           -1.45434921516216        1.47335848694432       -0.00011910897574
N           -2.29722968444607        2.49932132432098       -0.00013679453705
C           -3.50432055472237        1.91612217887904       -0.00018120652161
N           -3.55423662497972        0.58105303594428       -0.00008228995892
H           -4.40402191376878        2.50456679529861       -0.00026971112424
N           -0.14189645926539        1.47309975846160       -0.00006061788753
C            0.50364986019337        0.30588379562902        0.00001299431391
C            1.89945590273918        0.51245654639247       -0.00023192929582
C            2.23324850872621        1.89706722353505        0.00032954230057
N            2.62811915919537        2.97432535856766       -0.00170067646899
C            3.00098412468784       -0.37047055738226       -0.00003882337320
C            2.91222429944923       -1.77615777721486        0.00054845920929
C            1.79656777842725       -2.57675671365608        0.00086525036984
C            0.44762985397422       -2.23259554297912        0.00068156698148
C           -0.18054408599812       -0.99242534644576        0.00032890903768
H           -0.23330832320760       -3.07720411087044        0.00081748558995
H            1.99105698359765       -3.64169156821838        0.00126346090770
H            3.86725832238456       -2.28813586416658        0.00074246776098
N            4.24149612695352        0.16599848108523       -0.00030863480503
H            4.36478312979871        1.16470238539334       -0.00065004532257
H            5.05320041685081       -0.42489039208305       -0.00013379256047
