30
 energy: -59.738291142012 gnorm: 0.000429476395 xtb: 6.6.1 (8d0f1dd)
N           -0.51535362201250       -4.10363018346538        0.96793228199266
C           -0.27209804424816       -3.00750659032488        0.72689788673526
C           -0.02069338923017       -1.65615725650795        0.42434488190042
C            1.27136655898529       -1.20598093046903        0.26028072152936
N            2.41531023296057       -1.90723117027321        0.35438415698910
C            3.39404281456873       -1.05159450605539        0.07353133591026
N            4.67721098727256       -1.40445646981568        0.06911308189398
H            4.92334064188284       -2.35417566866322        0.28903584630875
H            5.39003906096876       -0.72648179885824       -0.14029765044450
C            2.90634947155418        0.28859233777547       -0.22222248819242
C            3.74048007594835        1.35243148550929       -0.54438817742800
N            4.50933669634234        2.16747327089599       -0.80605632980808
C            1.53034724332865        0.19888966687835       -0.10279399809951
C            0.47009990709873        1.11062062364611       -0.17624324982982
C            0.71091228976517        2.47963806203695       -0.41092486191467
N            0.91060354455262        3.59141305698559       -0.61145683504556
C           -0.84605289208498        0.68444897100743        0.06125138488275
N           -1.74995560961691        1.63776063758276        0.21933385778885
C           -3.05683057212161        1.57404229319618        0.31708707860453
N           -3.89729711656515        0.63902044261444       -0.15665415981077
C           -3.58226009931676       -0.61574141548540       -0.35348705815826
N           -4.54302651875915       -1.37734718160096       -0.90906887537001
H           -5.41113732757467       -0.94176036606122       -1.16630440806989
H           -4.41090556415582       -2.36004383526409       -1.06421667558518
C           -2.36902847891241       -1.29326622958117        0.01297662836097
C           -1.12314972146145       -0.75921111432292        0.21049876068718
H           -2.44004286967240       -2.37539491423791        0.03275708448693
N           -3.65412295193687        2.65448155311337        0.85170524989519
H           -3.08623991006017        3.45945984409006        1.05175945351182
H           -4.65161788320011        2.74439817465470        0.77787083407862
