27
 energy: -48.536849419063 gnorm: 0.000788898621 xtb: 6.6.1 (8d0f1dd)
N           -3.09439259513710       -3.03278549486235       -0.55586110838545
C           -2.37743664525876       -2.15336909847918       -0.38693619041101
C           -1.52814817240961       -1.03921404944238       -0.19656143843045
C           -2.09669960178104        0.20975678426374       -0.13316134481020
C           -1.25067310815313        1.38740214132043        0.13097119525988
C           -2.07952665853902        2.47516806896512        0.22763249687483
C           -3.41541133669295        2.02362071672013        0.01294770417522
C           -3.43356644664085        0.66670422037625       -0.20472062604102
H           -4.29115385846977        0.04899598936921       -0.39037890727567
H           -4.27709807649781        2.66670262092552        0.02180681270006
H           -1.78544786338026        3.48945207623281        0.41869652008171
C            0.14945305057356        1.22159972834863        0.17709575103529
C            0.90363650617562        2.38118567351827        0.46917310754586
N            1.41553680406262        3.34834549175799        0.81385074550553
C            0.73717400017938       -0.03329840606821        0.03347016252147
C            2.15434216549054       -0.10475172714113       -0.18035082005223
C            2.77619383712231        1.05515606080138       -0.72410996872803
N            3.34598459598898        1.88297580270436       -1.27545264203851
C            3.04208279822236       -1.14307447944508       -0.01123673319159
C            2.78246321907841       -2.45914221657184        0.40741680756185
C            1.56287909741026       -3.07152411899132        0.48632392269912
C            0.30042067724301       -2.53094399346905        0.18053418158835
C           -0.11382883506715       -1.22911130027597       -0.01150933003601
H           -0.49539508060964       -3.26752443177472        0.14974952053931
H            1.55673331095555       -4.11685284275205        0.76520803501187
H            3.65440988310643       -3.06077464780296        0.62743551549069
H            4.08074419832952       -0.90530535752753       -0.20737724189056
