32
 energy: -59.943849779468 gnorm: 0.000985359878 xtb: 6.6.1 (8d0f1dd)
N           -3.05573429860564       -3.58447709108626       -0.53582302903850
C           -2.63646574972264       -2.53806826018720       -0.31298286638867
C           -2.21415107786843       -1.21412002820611       -0.04353926990951
C           -3.27337277395214       -0.38037529765306        0.48012412387091
C           -3.28761162554415        0.99304410916355        0.48339200296953
C           -2.32636265508754        1.90334620332299       -0.01342857960276
N           -2.74967795427582        3.17844991221219       -0.19124257319282
H           -3.70832592829125        3.42667396365553       -0.03543127242373
H           -2.10957335356678        3.88244468124060       -0.51672379708101
C           -0.98688625878715        1.60628669301387       -0.28005227949104
C           -0.25666793459746        2.64725385090970       -0.89100219520142
N            0.22406308928347        3.49833355995169       -1.49746668894293
C           -0.25648593445371        0.38310162883295       -0.06053533454957
C           -0.86650103376034       -0.92388954510696       -0.21248357891244
C           -0.00471927178219       -2.04127498727884       -0.48802588592182
C            1.33837100504250       -1.92863987258342       -0.36237108155636
C            1.94496690971382       -0.66596357907831        0.02958379840275
C            3.30348479045478       -0.88663282431445        0.17258546558269
C            4.29805934896912        0.01244020034565        0.55358637856189
N            5.15649216819387        0.70991652430197        0.86816111368966
C            3.56143866734009       -2.28351207463582       -0.15281049627596
C            2.40224497001514       -2.90036773460440       -0.47149221617528
H            2.26267673130084       -3.92592428469772       -0.75403798581792
H            4.54453573642986       -2.71719882889734       -0.13005533353677
C            1.12081558316690        0.47621188929487        0.13683392273596
C            1.70487978311779        1.70104803898125        0.52821464843440
N            2.18029531013524        2.65623946326266        0.95079352485729
H           -0.45484253017178       -2.99762047999600       -0.71153832282870
H           -4.20556393846188        1.44916216534369        0.83543481220365
N           -4.35461764774679       -1.03298956545562        0.97992777648926
H           -4.42929900465854       -2.03288156955473        0.91729324753412
H           -5.15890590163260       -0.51201679499362        1.27804919781474
