25
 energy: -47.512002888089 gnorm: 0.000539781728 xtb: 6.6.1 (8d0f1dd)
N            0.89696811466720        3.62013410405878       -0.78949469979683
C            0.70295352208746        2.52906606642713       -0.49009879549104
C            0.52853364174745        1.17197024193702       -0.15600554052145
C            1.63658888005915        0.30348486086285       -0.13102413696497
C            1.42285879387930       -1.08502841069908        0.38946598154597
N            2.58874894743873       -1.72995721321689        0.49729767769606
C            3.51854500052284       -0.86427369952417        0.07383267696492
N            4.80900585581508       -1.20222182276897        0.04829317558099
H            5.07261220036400       -2.11823584478221        0.36760240800602
H            5.50987481124757       -0.54545076782343       -0.24438871105808
C            2.98356597666211        0.41330156124107       -0.31752846560404
H            3.55156483854795        1.25522241758701       -0.66078365270562
N            0.24693571065489       -1.57383959942590        0.65502996215618
C           -0.82957112010634       -0.79077656498653        0.45068384437257
C           -2.02137978552388       -1.45232540498646        0.26211757847283
C           -3.28275414440401       -0.88371720832924       -0.09826462895040
N           -3.71926425494504        0.32557292028946        0.18433411746150
C           -2.96622164731166        1.31933068076023        0.63548316302752
N           -1.70040140956118        1.53492750626260        0.48887992538367
C           -0.71513337131158        0.67553410958374        0.24072129777401
H           -3.52749446806830        2.14381075453640        1.06507301789215
N           -4.16942441081021       -1.69224607115620       -0.71080039713065
H           -3.96343401345124       -2.65885069723183       -0.88429004241151
H           -5.07842906692973       -1.32447777552327       -0.93086807124414
H           -1.94712013727093       -2.53276592869151        0.24965321924456
