25
 energy: -48.288468078087 gnorm: 0.000768301778 xtb: 6.6.1 (8d0f1dd)
N            1.14023388245912        3.64072604845465        0.92133496202747
C            0.69968030920696        2.60086595974351        0.72035685680646
C            0.15923840316069        1.31711400693796        0.49648283671992
C           -1.19843192396002        1.09240802967959        0.38180344332927
C           -1.65386379585586       -0.25826026881810       -0.09300160759498
N           -0.86124237039223       -1.31114076240409       -0.12245088360081
C            0.40906136742332       -1.14902822396743        0.17460608274104
N            1.10055887702928       -2.15594364959636        0.65157729939411
C            2.39063152573956       -2.30289560708774        0.83611598385247
C            3.43502511417938       -1.61056115982184        0.24435118300512
C            3.27044717762440       -0.36342433116155       -0.39425021311999
N            2.26406944818970        0.45882535782621       -0.11910895956382
C            1.03185297560173        0.22730013590915        0.18956882814917
N            4.24496381397125        0.15148750076850       -1.16941553811210
H            4.17199942949498        1.11054336479117       -1.46378059372380
H            5.12048200245526       -0.32799074839528       -1.27623585419721
H            4.43615155767673       -2.01209703356228        0.32153754102987
H            2.63665216829209       -3.15614183597311        1.45970660935381
C           -3.00571605242380       -0.13539905657720       -0.39375725133668
C           -3.85198455751291       -1.12165780275413       -0.90446520901251
N           -4.56806403384021       -1.90955864419946       -1.33642457202786
C           -3.39948789841519        1.19935992013939       -0.06528102392138
C           -2.32401124551414        1.92987270494089        0.39616497351556
H           -2.33242767657321        2.95936850656732        0.69976333891076
H           -4.40392453171680        1.56681538305864       -0.18241137292784
