25
 energy: -47.511934716504 gnorm: 0.000699337851 xtb: 6.6.1 (8d0f1dd)
N           -1.05290017512761       -3.53946846475393        0.95180049624574
C           -0.87798521387583       -2.43933153350321        0.67418906475971
C           -0.63776007599128       -1.09012479763243        0.34633423905218
C           -1.67361829674226       -0.18458787806735        0.20782536348625
N           -2.99008862166647       -0.35004206561542        0.33631804079935
C           -3.53101237867493        0.83215392335481       -0.02362657837030
N           -4.85481342850581        0.99440250290264       -0.01604095806839
H           -5.43258111996968        0.22374686194763        0.27275819936773
H           -5.27113500296304        1.87104249185143       -0.27387669039242
C           -2.56269739345478        1.81829413464415       -0.39271670967261
C           -1.34850131467221        1.20166053538429       -0.24084707918390
N           -0.10168000334889        1.66109011855342       -0.34844200105977
C            0.88990334750126        0.83310613096260       -0.11552054290379
N            2.07584652496964        1.40087553289175        0.05481537515824
C            3.27474629648594        0.88962978850289        0.07376279187552
N            3.70937480334902       -0.23618025050412       -0.54389608819320
C            2.97640386040935       -1.29151075941275       -0.70099166366380
C            1.66802760397210       -1.55844226488707       -0.24570343591916
C            0.68363024338961       -0.63854580194702        0.05670307497924
H            1.36776053233808       -2.60087982151660       -0.25596802104788
H            3.47989190295748       -2.10109482581615       -1.22208992142742
N            4.24600847494723        1.62289410596288        0.65002805834098
H            4.02044525246274        2.54727001364153        0.97201894401989
H            5.20316457123532        1.35507073900798        0.50570440133479
H           -2.76846726122400        2.82164562994810       -0.70293185452008
