25
 energy: -49.086000340925 gnorm: 0.000765558426 xtb: 6.6.1 (8d0f1dd)
N            1.90585979282000        3.75467500477022       -0.53020671123235
C            1.37891346988435        2.75174648932633       -0.36049116905295
C            0.70243395547274        1.52354135670791       -0.18549355260785
C           -0.66833967397322        1.46395763486043       -0.14215787851582
C           -1.35946508267267        0.18624478651839        0.09577632652557
C           -2.71408330284977        0.46371410507260        0.14833070348440
C           -3.76497383502146       -0.43124049708601        0.36351080884487
N           -4.65179376442067       -1.13935431158015        0.54231274225729
C           -2.88084704149306        1.88556493241650       -0.05840755503411
C           -1.66460268010834        2.47725326568768       -0.23294220830264
H           -1.46662949972048        3.51783370786863       -0.40342812949028
H           -3.83918133384089        2.37210475695804       -0.06739125981536
C           -0.61674549221445       -1.00911850974444        0.13710749445064
C           -1.27436421685981       -2.25734356231716        0.20643134552855
N           -1.77031257580060       -3.28974762447134        0.25784406710808
C            0.77658355913493       -0.97146692972368        0.06084585929559
C            1.51114184999749       -2.10647305982736       -0.34562015323714
C            2.88480532524704       -2.21888520391708       -0.48499660621577
N            3.82760054426937       -1.50016127369126        0.11031137957617
C            3.64743885242992       -0.36399398151278        0.71345715098355
N            2.69691470106534        0.52278020308292        0.46437814357294
C            1.47060849465480        0.34032238266692        0.09465751103048
H            4.44514631680677       -0.01663588478263        1.35940789788823
H            3.27195790581417       -3.06035757039861       -1.04754006274916
H            0.91731577427842       -2.94622673838349       -0.69029090249241
