32
 energy: -53.551612922692 gnorm: 0.000454033360 xtb: 6.6.1 (8d0f1dd)
N            5.53592357469284        0.38126481406083       -0.36768727398459
C            4.39150372353273        0.30473583761217       -0.25712982511538
C            3.00838735409249        0.20040474330044       -0.15031871081833
C            2.08214447545089        1.29069889994703       -0.30270085018811
N            2.46123975526571        2.60605784108253       -0.45063501222662
H            1.78517584155224        3.21046203386813       -0.88980107792270
H            3.41089087032695        2.74882318587127       -0.75912298403974
C            0.80036350061840        0.77860610610301       -0.18602175302642
C            0.90479957621493       -0.64501994504564        0.07167194841261
C            2.29570081874786       -0.97729545627085        0.06653867149711
N            2.83498512886118       -2.24073509995253        0.26268677764123
H            2.38329163201723       -2.97325971115345       -0.26924474475273
H            3.84019179011422       -2.25585287056925        0.14174362901901
C           -0.21034477845304       -1.41031682663014        0.32601109536085
N           -0.08994747901491       -2.72244040169097        0.70345384707208
H            0.80890445953174       -2.97215791428805        1.08648491261984
H           -0.88025630139553       -3.14041753765956        1.16706312906399
C           -1.51835263545458       -0.82942008630231        0.07675446026614
C           -2.56984915376261       -1.68163760407484       -0.18183141416753
C           -3.85643537610850       -1.37663247069317       -0.68426554181371
C           -4.43008763003337       -0.14283867613822       -0.76509971390025
N           -4.05311222971123        0.97516569236084       -0.12650104347067
C           -2.87937766541482        1.26569248636936        0.32391426465702
N           -2.80783620799395        2.33205912576928        1.15017192619605
H           -3.66366544608775        2.77150079547673        1.44123199085619
H           -1.93636615085708        2.59807048257626        1.57027527063804
C           -1.58868023144617        0.62201983322864        0.01734728137404
C           -0.46664521500349        1.38749580753624       -0.11358291736439
H           -0.54257692358376        2.46520982913367       -0.16314336360556
H           -5.37867639030463       -0.03291858521952       -1.27895022192326
H           -4.42130042807148       -2.21312707930364       -1.07403557639593
H           -2.35272382422230       -2.74215335270345       -0.15190196905723
