30
 energy: -60.511672767898 gnorm: 0.000744590370 xtb: 6.6.1 (8d0f1dd)
N            0.63448691782963        4.25041961808441       -1.27749237604228
C            0.29512259003665        3.21016784060444       -0.93499468631791
C           -0.13095061006558        1.92480185655873       -0.54036970572565
C           -1.45212141753000        1.60933953989916       -0.38740489261421
C           -1.85370035511475        0.29332241602584        0.11887194522105
C           -3.22840331137848        0.31818307809019        0.26050810989615
C           -4.07413113092438       -0.68570238750505        0.73222000729173
N           -4.81077162683667       -1.47738518676108        1.12193587067668
C           -3.69584860460205        1.62769857327153       -0.17132342391729
C           -2.64330338480652        2.39117867882134       -0.55633194819179
H           -2.66238379761391        3.40054613413645       -0.91942229149035
H           -4.73285679475421        1.91007072615691       -0.16777398067709
C           -0.88124445867780       -0.71753546320900        0.28693443060475
C           -1.28554233259362       -2.00168154747136        0.71075545041991
N           -1.61909602204706       -3.01352336699208        1.13573634831901
C            0.46678189197591       -0.42928538760437        0.07202358148137
C            0.87411595860786        0.97003221877611       -0.11508660105646
N            2.02830095014372        1.47723392675777        0.16196745340202
C            3.12622129777598        0.84617331855682        0.61977206855606
N            3.56417348190645       -0.33362818767585        0.25343194233606
C            2.83405736594180       -1.31850866279979       -0.26885726315400
N            3.55955255785744       -2.30761083626225       -0.82021964600444
H            3.12487504180387       -3.15422986034585       -1.14615180654705
H            4.56126823084298       -2.23795318142422       -0.77950400979952
C            1.41919504200041       -1.45505707610840       -0.20036123293312
C            0.93548749556212       -2.70925456809597       -0.62329914279475
N            0.65070927878607       -3.73814869207347       -1.05067245806256
N            3.91320571663785        1.58786858337838        1.41021934410776
H            3.68285473850354        2.55400984063476        1.56379991121818
H            4.81356688280827        1.23155198106873        1.67799298668903
