29
 energy: -56.793132596911 gnorm: 0.000840585516 xtb: 6.6.1 (8d0f1dd)
N            0.20800256449343        4.45463417897334        0.42347715972012
C            0.17232794545079        3.31493334790803        0.30042823511588
C            0.12025473068166        1.91042765139518        0.16337780392038
C           -1.12203028688539        1.29956263226988        0.15566229702462
C           -1.22007045912423       -0.14543271929316       -0.07044087946552
C           -2.57751370223588       -0.41370512089811       -0.11169864662724
C           -3.28582216850899       -1.59706878808376       -0.30144368445037
N           -3.95824794234466       -2.51776459831047       -0.44824918208434
C           -3.21474263530642        0.87291205401811        0.11621126366777
N           -2.33186832277193        1.86248905641194        0.26681070888459
N           -4.52773572208827        1.07240736951970        0.17530537087657
H           -5.16647950305823        0.30417067860400        0.05712319887749
H           -4.87129592154141        2.00208510538666        0.34679034291196
C           -0.04720710851616       -0.91540568575069       -0.14241000217042
C           -0.19959232338574       -2.29047566471761       -0.43477869435301
N           -0.40399198232442       -3.36326894850732       -0.78577738099170
C            1.20950733724004       -0.31111317471254       -0.02708613644193
C            2.34128828290193       -1.16189413441540        0.18386089381743
C            2.08056507248351       -2.44100294496904        0.75111437287556
N            1.99491342765408       -3.42999989571377        1.32449288453916
C            3.69209977741493       -0.93879648133612       -0.00633456344075
C            4.33310662960224        0.22395926355250       -0.43416095764706
C            3.78087034497858        1.48203212264354       -0.52746712741050
C            2.47697868982294        1.87844746206592       -0.23867178903867
C            1.31216514314644        1.14637974589730       -0.01746329188124
H            2.32504860654757        2.95218209634855       -0.24931682426376
H            4.45282178076656        2.28229444167282       -0.80899463615516
H            5.38929930553954        0.13235979834879       -0.64871571653669
H            4.33057526427099       -1.79320545620731        0.18559965162834
