29
 energy: -51.195580729194 gnorm: 0.000762942322 xtb: 6.6.1 (8d0f1dd)
N           -1.28079370575736       -3.97421672017806       -0.01329252876636
C           -0.98591726388924       -2.86308060643672       -0.00211836806539
C           -0.66964202373265       -1.49087943315172        0.00990100222257
C           -1.73257505668411       -0.58455284198986        0.01970886378238
C           -1.45240733932696        0.86777845783364        0.02909076047587
C           -2.65867464435381        1.52772886889142        0.03850660376010
C           -3.68252123742267        0.54258020389232        0.03503089894632
N           -5.00011999803786        0.80179136248018        0.04157777102003
H           -5.66659596166074        0.05042299915901        0.04007792198790
H           -5.33231636280235        1.74951451929503        0.05258286539890
C           -3.10341646201716       -0.74730005419795        0.02289784166917
H           -3.63964638184651       -1.67671744242719        0.01768430581470
H           -2.81207940789144        2.58959605678771        0.04703255006258
C           -0.12152640469097        1.29964720473853        0.02489931302547
C            0.16825271607868        2.67880181737882        0.02646021485846
N            0.38036245103531        3.80742186180383        0.02478192619587
C            0.95664836084725        0.39390708232734        0.01595022790775
N            2.13729382750448        0.99098264066800        0.00722469636854
C            3.37098377096171        0.53888037546318        0.00172017901226
N            4.29998448192765        1.52930635527339        0.03290930430059
H            5.27329936459040        1.34018236743731       -0.12024016313526
H            3.96140458825670        2.47341682541174       -0.04051488977871
C            3.83563371627077       -0.80140526817240       -0.00244895122223
C            3.06028906446465       -1.93257805688964       -0.00071530277837
C            1.66798037635573       -2.04104659439900        0.00447985397262
C            0.67994175166530       -1.06173514470754        0.01033164454111
H            1.29506948599925       -3.05962143351557        0.00330550778199
H            3.59250194960812       -2.87567299024591       -0.00453727929779
H            4.91034186824775       -0.92949363202976       -0.00585371336109
