25
 energy: -43.502031257918 gnorm: 0.000389279212 xtb: 6.6.1 (8d0f1dd)
N           -0.47380523450263       -3.37978065133944       -0.84409757414269
C           -0.57513862116505       -2.26293742148505       -0.60155070558786
C           -0.72321826463252       -0.88808577086474       -0.32333192366434
C           -1.95243813430414       -0.32367621850906       -0.11595758351674
C           -2.06907020661415        1.11329688932994        0.20080415034747
C           -3.40328569308252        1.37710543958309        0.37297054689384
C           -4.12989993529172        0.15664802725495        0.17514581422991
C           -3.27157721138072       -0.86500959020304       -0.11768714240339
H           -3.51564297789603       -1.89076439538506       -0.31660878361804
H           -5.20012806820487        0.07675109066628        0.24979627397071
H           -3.84590289694971        2.32489795135994        0.61474753865906
C           -0.91596773496051        1.90943663785674        0.20289676114665
C            0.33387451938465        1.36305483914501        0.01564109358084
C            1.44879506544030        2.20759699296568       -0.25233193835479
C            2.76278812496423        1.86618451719620       -0.45216451193808
N            3.40232578257123        0.72385177315964       -0.19171253686329
C            2.82854408960018       -0.39365375767480        0.18110564306494
N            3.61763753349703       -1.34284834369300        0.72269413374736
H            4.60982099991137       -1.18716332044913        0.74047685061059
H            3.25117323075550       -2.27405924637935        0.81517095892048
N            1.55588378607201       -0.80015237280627       -0.01826178136158
C            0.47539625086784       -0.10056102700214       -0.12431411659401
H            3.43611233514164        2.64012139426568       -0.80490181237700
H            1.19918163688452        3.25175077887809       -0.40052584771224
H           -1.01264531440564        2.97896449633013        0.32768285476050
