27
 energy: -46.949856747402 gnorm: 0.000399250957 xtb: 6.6.1 (8d0f1dd)
N           -1.50835207547555       -3.44900714560048        0.10775381557137
C           -1.37660859723433       -2.30802146462040        0.07552029851235
C           -1.18533945835340       -0.91318446492161        0.03721996436976
C           -2.29590155610248       -0.08105417951922        0.01985976969183
C           -2.10957535596101        1.38852544039206       -0.02396408574673
C           -3.40793226523716        1.89709301137100       -0.03493976959888
C           -4.24309214401628        0.78167725757956        0.00033984980787
N           -3.59012397506211       -0.39515038750350        0.03353356438869
H           -5.31975404158217        0.78352726379994        0.00327608551881
H           -3.70929434227845        2.92549988890849       -0.06478402599365
C           -0.83872742362647        1.91663148787756       -0.03839599371657
C            0.29981005123783        1.09680805784052       -0.01772055296631
C            1.53385217888647        1.74058828385124       -0.01592678477833
C            2.85130054160944        1.25245087969438        0.00334264392944
N            3.30024059357592        0.00411107977587       -0.01045436840803
C            2.58150827493634       -1.10087881601497       -0.02645547035894
N            3.32451068867233       -2.23444895129842       -0.04257564212509
H            4.32254589145466       -2.14776754541589       -0.10908177672832
H            2.89597736213707       -3.13826094267241       -0.12034105545922
C            1.17508075766122       -1.27619024888642        0.00227818337990
C            0.13376243921481       -0.37134768955567        0.01049423016622
H            0.87264146265288       -2.31786248242544        0.01792296797458
N            3.85296763292051        2.17499023419501       -0.01019122813981
H            3.66168527771375        3.14479686889062        0.16050310492005
H            4.79181513826110        1.83686068147955        0.10390305638578
H            1.47286679978936        2.82379019156046       -0.02964212114822
H           -0.70376021889427        2.98971329661819       -0.06351157434849
