26
 energy: -52.810922683423 gnorm: 0.000700046753 xtb: 6.6.1 (8d0f1dd)
N           -0.34878582222281       -4.17100953003338        0.97215007185715
C           -0.49248249581276       -3.06284832213259        0.71276221850033
C           -0.64758136436969       -1.69509838517194        0.40496746165651
C           -1.89940222598147       -1.17074340942914        0.20199040140309
C           -2.06363076976838        0.23475152494737       -0.23250475629590
N           -3.34629857090963        0.44454456289931       -0.45245062880927
C           -3.92584964773420       -0.74466966343536       -0.14716758928370
N           -3.12852558382841       -1.72564254036975        0.23227830526046
H           -4.98976710780704       -0.87327778224502       -0.21918494465881
C           -0.95035797848394        1.08436700728441       -0.29633299285821
C           -1.15853160778230        2.41316795813772       -0.73213043480397
N           -1.36855128124829        3.44277899574706       -1.18974991314504
C            0.32076041527781        0.58554179718768        0.01082061484242
C            1.37686861939402        1.49944037999964        0.29135758330217
C            1.03690465958312        2.82783200320192        0.65817424322180
N            0.87111628226944        3.88468778946131        1.07041123870416
C            2.74718638545955        1.25315706009404        0.37631651947018
N            3.44140844542162        0.21097354571876       -0.01485001003208
C            2.99267295736996       -0.99488885844266       -0.28883054326443
N            3.88106766889400       -1.83792805008711       -0.83963172234895
H            4.80616914319204       -1.49582079551533       -1.03732424049516
H            3.66148268036909       -2.80409021737726       -1.00391974043947
C            1.70816678977555       -1.52059412303587        0.05992948282236
C            0.51174990835438       -0.86236810889517        0.19300545618999
H            1.67398952031465       -2.59972949974906        0.16575720396949
H            3.36607442717601        2.07357087724444        0.72602684203929
