30
 energy: -60.498381029967 gnorm: 0.000938201830 xtb: 6.6.1 (8d0f1dd)
N           -0.65179540854134       -4.29521624933167       -1.02925003328461
C           -0.28168256412197       -3.24101168806560       -0.77370401436682
C            0.13556318432924       -1.92647990657452       -0.47423789206178
C            1.45855911001212       -1.57595500940806       -0.38708232858536
N            2.55822500543805       -2.35176410410798       -0.57747546220106
C            3.58702981182612       -1.60212950963662       -0.26490009631429
C            3.22948870278663       -0.27525386028393        0.15922255048955
C            4.12876532784807        0.71523754845953        0.55521753999613
N            4.89954111978559        1.50204827322140        0.88153663419574
C            1.84435536113904       -0.23067809249230        0.06841567409972
C            0.86386139393642        0.75642539858376        0.25291213413262
C            1.25830519030738        2.03541831110824        0.70223887972671
N            1.59244825994476        3.03263561202815        1.16057461704658
C           -0.48929959660363        0.44362357672132        0.05503024777896
C           -0.87400523095883       -0.97033140650947       -0.09205266445554
N           -2.03054332450350       -1.49017100597437        0.16323573155208
C           -3.18534927337538       -0.94984816321476        0.55223784095970
N           -4.00881014658111       -1.82336318853685        1.16594777569961
H           -3.71296354875133       -2.78235127226793        1.23242509701913
H           -4.95903800621217       -1.58350232472437        1.38221397507451
C           -3.62556993181011        0.33957272246062        0.25541990296820
C           -2.85568008170309        1.42083027046192       -0.18746273658434
N           -3.52212858861705        2.53625118064383       -0.56186823162861
H           -4.52443229948552        2.56486444693513       -0.51660383650184
H           -3.02464682466593        3.37205192858886       -0.81812119623539
C           -1.43290142072993        1.46963936574614       -0.19638411459039
C           -0.90602396976778        2.70676158983266       -0.63800230080457
N           -0.58267630303965        3.70934951529542       -1.09674743552464
H           -4.68922511827877        0.51896352892390        0.34828635891498
H            4.59000486989443       -1.98412631338242       -0.33414424611500
