29
 energy: -50.399403397958 gnorm: 0.000823410145 xtb: 6.6.1 (8d0f1dd)
N           -0.76543087840332       -3.62726997146444        0.22004809348103
C           -0.70285740723362       -2.48189131069816        0.14940607372364
C           -0.67528104559901       -1.07825498031313        0.06186829069970
C           -1.88972967054790       -0.36241411275647        0.03024140211671
C           -1.84565351825015        1.10359368680619       -0.10633005319320
N           -3.09735599218872        1.61765112558790       -0.14537966762148
C           -3.91049917358799        0.56858126371372       -0.03917033290776
N           -5.24592547113239        0.71545472551886       -0.01614413394361
H           -5.84469411198270       -0.08909320548872       -0.05214448437916
H           -5.62914914150700        1.62926059695133       -0.18114445022718
C           -3.21713813724825       -0.68776529588802        0.07308933265361
H           -3.67213746445791       -1.65378773191734        0.16713522404964
C           -0.65059644281252        1.75685783423141       -0.16690861364210
C            0.58178440234708        1.05470566206645       -0.09017800707793
C            1.72490766900635        1.82106082942489       -0.06111758253655
C            3.09623610771342        1.47031483727709        0.04174298435763
N            3.97279704276785        2.52264114448466        0.07414910385598
H            3.62032354486592        3.44162247702343        0.27515187554466
H            4.93019592937668        2.34361001345690        0.32162158691758
C            3.61460840688107        0.19417263937988        0.04088072294566
C            2.89418563636080       -1.02313642837887       -0.04720953691128
N            1.60629702950167       -1.24382046034888       -0.04030846408763
C            0.55593369667909       -0.42275943510140       -0.01277899188262
N            3.63112146761097       -2.17137575891772       -0.06633796967359
H            4.60380506765032       -2.15295476335139       -0.31359156987839
H            3.11263942160427       -3.02050198716885       -0.21603981674865
H            4.69190085358595        0.10150372661810        0.10589225701043
H            1.55436620896413        2.89273323305850       -0.10141667804383
H           -0.63370007796401        2.83334879799395       -0.25609087920134
