24
 energy: -43.778759369151 gnorm: 0.000878533379 xtb: 6.6.1 (8d0f1dd)
N            0.62736682257254        3.48729177415651       -0.94255618665900
C            0.68382337688398        2.36766687402424       -0.68944804134031
C            0.74429699415626        0.99835596743677       -0.37388454171052
C            1.96760805362078        0.39542987571327       -0.10550247063128
C            2.01141440196806       -1.03689883949479        0.30460566730514
N            3.26638225146444       -1.40409835115148        0.55802542916854
C            4.01870965500917       -0.31085601592226        0.33686435767771
C            3.29288866251341        0.81177737015155       -0.06928055250094
H            3.68143885351865        1.78385390994127       -0.29963427861032
H            5.08428922477820       -0.36776959579981        0.47830038264992
C            0.86426070734972       -1.80230687995841        0.30079288855382
C           -0.35628473110201       -1.23683160164407       -0.07730621914935
N           -1.33946275029545       -2.06875529325372       -0.36434374940862
C           -2.59785131203100       -1.83772702423767       -0.60643486128277
N           -3.36430774510849       -0.84237990628199       -0.20718975697555
C           -2.93822825750234        0.34950032839546        0.16917692093905
N           -3.86537481092341        1.14310101806835        0.74242790966443
H           -4.79919908238656        0.78568468665606        0.84465117250859
H           -3.67420217830164        2.10609557561365        0.95248931526472
C           -1.64621671459807        0.90935521609019       -0.06776475666051
C           -0.45428895747901        0.24596116151192       -0.24767979763124
H           -1.59277281585552        1.99233343684582       -0.01187649351711
H           -3.13269072711744       -2.65433182241328       -1.08158244060066
H            0.90641325906556       -2.86276467964773        0.49092127424623
