25
 energy: -48.301829036136 gnorm: 0.000979726718 xtb: 6.6.1 (8d0f1dd)
N            0.00190502716315        3.98812246124709        0.30456785437767
C            0.00108898366469        2.84724201259155        0.18567822283755
C            0.05236980448644        1.44327630605525        0.06937559896311
C            1.30178936335952        0.79235295188649        0.09822652218690
C            1.37468513942369       -0.66388505388911       -0.16838628305009
N            2.64034188100216       -1.07838318017031       -0.20362377940969
C            3.38785319000183        0.01755801329833        0.02881211913674
N            4.71672134857278       -0.06100114020456        0.06276000561312
H            5.14944690820081       -0.95476562667708       -0.09784375561181
H            5.28220625159661        0.75432741595603        0.21915813864680
C            2.60201560469071        1.20233164182582        0.22112380242813
H            2.97813447979828        2.18710129333507        0.41117395474405
C            0.21389154796698       -1.41093859166763       -0.29546623186050
C            0.28301125523988       -2.80557688854393       -0.48972610433971
N            0.31417884635245       -3.94097279439203       -0.65209982905641
C           -1.04980520341357       -0.77505534605898       -0.14326433538159
C           -2.15142269998221       -1.53381694975170        0.20932209771577
C           -3.42578345175838       -1.05113447277751        0.58590540742640
N           -4.01909237285733        0.04343388607853        0.22545380663274
C           -3.44711334568159        1.01009644340155       -0.49504776004812
N           -2.21159159108615        1.37787667283652       -0.49565564103563
C           -1.11234799455984        0.70940983700661       -0.14842797340501
H           -4.13678665683970        1.65775465983478       -1.02694873310842
H           -4.02724893581624       -1.70254761669378        1.21289586392000
H           -1.97795201422940       -2.59329682302853        0.36166796927700
