27
 energy: -52.524744752587 gnorm: 0.000924616489 xtb: 6.6.1 (8d0f1dd)
N           -2.79226566529273       -3.43264237676442        0.52967210302600
C           -2.23321162310347       -2.44783955998518        0.34892398900133
C           -1.57387115071883       -1.21363009334078        0.16978269623224
C           -2.28585041726539       -0.01849300040113        0.25076616475166
C           -1.62836962255223        1.25025748806584       -0.16129477509040
N           -2.50967382052056        2.24666137038304       -0.17631183142839
C           -3.67532534411826        1.70822790856103        0.21275091483108
C           -3.60954286241285        0.33095843960661        0.46815212209439
H           -4.41315317893909       -0.30741895774219        0.77527505660509
H           -4.54385386494489        2.33722190063387        0.29662526964206
C           -0.26589271380273        1.28102599198118       -0.43051456006442
C            0.32324164289237        2.47435002007277       -0.90189728856006
N            0.77339706941406        3.41703228227555       -1.37497032498900
C            0.50287356018295        0.09969883248939       -0.26603293883971
C           -0.21354521349157       -1.20620568668117       -0.20633879036772
N            0.29710884405455       -2.35483611387942       -0.57750259024088
C            1.51499352941867       -2.71856366560722       -0.85509556405200
C            2.70056840148507       -2.12902808799021       -0.42904172437172
C            2.85621523481983       -0.84963215660853        0.10694735460706
N            4.05980730563583       -0.52655619590514        0.62840110411276
H            4.26177113831830        0.41124706014065        0.93214331680007
H            4.80510577496249       -1.19973933031755        0.61695444701936
C            1.86139418313152        0.18563008244094        0.03175052615611
C            2.35024890665656        1.45673327115823        0.43674033409322
N            2.83342711439911        2.40484434501802        0.86676893793229
H            3.59424294780679       -2.73701881790700       -0.48415156696700
H            1.57863368528619       -3.67676184609618       -1.35873088393686
