24
 energy: -43.768408735535 gnorm: 0.000323522838 xtb: 6.6.1 (8d0f1dd)
N           -0.55575142001328       -3.47589003371458       -0.81657670137643
C           -0.66615119689957       -2.35811575831497       -0.58056285315405
C           -0.74764814742889       -0.98026934765751       -0.28736358342833
C           -1.95120126505050       -0.36238578020563       -0.05332495590632
C           -1.95881428459481        1.10929000702556        0.17575634996053
C           -3.29379339955594        1.43294412678826        0.29930490452187
C           -3.98585569805172        0.20557183017573        0.18605809612381
N           -3.20720778358799       -0.84771536879136       -0.03334740775099
H           -5.05136759528562        0.06861543495402        0.25740955784157
H           -3.72493735573306        2.39835482673550        0.46624364858757
N           -0.86317435992701        1.85567057832006        0.10707724601626
C            0.30207377093391        1.28609119703635       -0.10211431458570
N            1.29262299479134        2.15255340707755       -0.29760936384672
C            2.57318401784924        1.99935593237507       -0.37797537407605
C            3.38553338964258        0.90372038132205       -0.05419559766131
C            2.96563755918671       -0.39884717429715        0.17573342783097
N            3.88398682964356       -1.33022029004119        0.52763679685685
H            4.85600385615777       -1.08551138893264        0.58894876758560
H            3.63032347365072       -2.29968261869439        0.59471281934076
C            1.63343025826039       -0.87095341398224        0.00776549052582
C            0.45589124408687       -0.19658047087425       -0.18632556175237
H            1.53953943019101       -1.95055055037420        0.09284347538984
H            4.44880940783239        1.09433214809185        0.01433117659233
H            3.09413692390582        2.90774824157876       -0.66992501233340
