24
 energy: -44.569013713440 gnorm: 0.000529079088 xtb: 6.6.1 (8d0f1dd)
N            0.51561037279164        4.01468610987529        0.00028509468044
C            0.44993943053741        2.86900128832842        0.00052569721451
C            0.42769264768492        1.45654020317393        0.00059829849353
C            1.66132457239932        0.79391291897506        0.00102515608020
C            1.68643472348311       -0.68448515357693        0.00118234650430
N            2.95064444003779       -1.13039232723441        0.00158365319403
C            3.71574637772194       -0.04131080271945        0.00171920709796
C            2.98963656401399        1.16944239803292        0.00137879054204
H            3.39511500933629        2.16126517547726        0.00142654578094
H            4.78641783663860       -0.14412918593765        0.00212093320529
C            0.50511724348605       -1.39998706741365        0.00094059881803
C            0.57038420422587       -2.81299094389799        0.00083726833245
N            0.62308807652454       -3.95814760598970        0.00184081483234
C           -0.75587159554303       -0.72999957317613        0.00055076087248
C           -1.88470449488617       -1.53553773303603        0.00038932683598
C           -3.25496675360255       -1.21479881523643        0.00005112203860
N           -3.87048868998877       -0.06661688398318       -0.00036814411791
C           -3.29914572747392        1.13000681317700       -0.00049541014633
C           -1.96807505109481        1.50422715200948       -0.00013391105235
C           -0.78251301923879        0.74398225560842        0.00033876579907
H           -1.80371119721952        2.57685069851306       -0.00024986586493
H           -4.02676623778078        1.93520230790592       -0.00091222096672
H           -3.93379330447743       -2.06239512528335        0.00016137668922
H           -1.68333472087571       -2.60136725849183        0.00067023903683
