21
 energy: -40.592977564893 gnorm: 0.000473408273 xtb: 6.6.1 (8d0f1dd)
N           -0.75948041262793       -3.48088226418020        0.77360015895085
C           -0.67784106318614       -2.35753628961446        0.56116116152654
C           -0.57674106865645       -0.96614338946114        0.34106802489927
C           -1.67250062111218       -0.14014612982826        0.26653108643041
C           -1.48756734269774        1.28519655222417       -0.18881090865202
N           -0.28600571205939        1.87150471784237       -0.19940424435720
C            0.75550625654801        1.13576574162678        0.01293109136781
N            1.87097710689436        1.59929850344798        0.55999567188922
C            3.05585782209143        1.06842055527199        0.61109324572110
N            3.60828199202064        0.15260189124299       -0.18389525837006
C            2.87784918877321       -0.71499129166578       -0.83029375559628
N            1.65403278628844       -1.08596387615655       -0.49335632969023
C            0.67931870773040       -0.38623999036825       -0.04073588723843
H            3.36404029558556       -1.32741442142130       -1.57947880354864
H            3.73092241703160        1.51571684635657        1.33409561638961
C           -2.72780413633339        1.77218526066941       -0.48046557566530
C           -3.68695408734342        0.75385086923019       -0.16655136542334
C           -3.06582631917550       -0.38309697717753        0.28581433931021
H           -3.52991962323030       -1.30208248301946        0.58882768339846
H           -4.74882619748085        0.87643326908452       -0.28677287948114
H           -2.95786571226021        2.74836226129584       -0.85841829786093
