24
 energy: -43.779136587113 gnorm: 0.000395186725 xtb: 6.6.1 (8d0f1dd)
N            1.71558200788354        3.30249132422357        0.87226854596953
C            1.43732518880433        2.21945501188445        0.61379245963003
C            1.05271443399087        0.89950898391182        0.30202735309884
C            2.01554901874264       -0.10330344951239        0.18684473207358
C            1.60844042008765       -1.47628289838027       -0.22631560939690
C            2.81478585972632       -2.18341365580968       -0.27859726975420
C            3.79860502198433       -1.26853488515512        0.06831392918727
N            3.32510637311031       -0.03118133478013        0.35381563989337
H            4.85813572810920       -1.44670820639987        0.12859721355539
H            2.95511019971515       -3.21337854755970       -0.53836991469840
C            0.27937853573578       -1.79181317549509       -0.37851047220814
C           -0.70812238025382       -0.82240391090064       -0.14475890056718
N           -1.93663985802839       -1.26885303780428       -0.01551108572475
C           -3.07621874683147       -0.61399237330919        0.10551251950744
N           -3.38400967208677        0.57734894482983       -0.42240161165998
C           -2.53221633480174        1.54169206750330       -0.62629749101017
C           -1.18315375780250        1.63902232288584       -0.24831956035557
C           -0.30319395483091        0.60488746508472        0.04176992174334
H           -0.75222580446439        2.63289250214746       -0.29561976590545
H           -2.96868960605478        2.40995161879005       -1.10970357695630
N           -4.09883039315960       -1.28556625926736        0.66754327408036
H           -3.97032232512578       -2.24879535453543        0.92095018234321
H           -5.02260353008674       -0.89626530366912        0.60756214876902
H           -0.04394021326584       -2.80241787818547       -0.57814686481808
