33
 energy: -57.279150949726 gnorm: 0.000711080185 xtb: 6.6.1 (8d0f1dd)
N           -5.71907643497709       -0.15234543179981       -0.18767844400246
C           -4.56743343984638       -0.16159485728378       -0.14011493528181
C           -3.17781295305251       -0.15702260807640       -0.08256561030587
C           -2.34622649037621       -1.30703980437494       -0.14716577707034
N           -2.80390323328734       -2.61423721756466       -0.19342921144844
H           -3.76307256857090       -2.70255521477952       -0.49677284259061
H           -2.18316249362177       -3.26618472916421       -0.64893250358015
C           -1.02443667447705       -0.87514568561932       -0.04077801071896
C           -1.03178486367584        0.57952860374040        0.04963629542119
C           -2.37471175009870        0.99589473287397        0.03982720321859
N           -2.84813255472964        2.31323941244774        0.10307168902963
H           -3.86151579699573        2.33885714767952        0.10020464076179
H           -2.48647186306793        2.83051841579071        0.89603164279604
C            0.15834885395943        1.29974140002342        0.03893664454142
N            0.08656675549630        2.67706883528577       -0.02074796401949
H           -0.80750439551034        3.00236710876547       -0.36376503260552
H            0.87800977920559        3.14017589526042       -0.44354658487840
C            1.40338053512699        0.61046427544511        0.02814575974150
C            2.62579671645154        1.31035128469029        0.08736974163185
N            3.77341913089585        0.95457149292210       -0.51442916896766
C            4.16044345219119       -0.23979962143237       -0.82223955015245
N            3.78588149034312       -1.38976731935350       -0.29453288525044
C            2.60152837326110       -1.61611760391534        0.23965080156679
N            2.52398864905452       -2.74176715181829        0.97280861708173
H            3.34479446917929       -3.31735615254554        1.05025291441235
H            1.64967402840272       -3.05202654032673        1.35637298697223
C            1.38743114872529       -0.86186893797965        0.02995313751321
C            0.19119505672677       -1.54848879227041       -0.01135193666779
H            0.19620611254458       -2.62943731298049       -0.06396844248543
H            5.01596531152249       -0.29919679376475       -1.48908323263826
N            2.69486422838094        2.57337585588876        0.61099772483610
H            2.02509539826443        2.83592829029184        1.31530796353581
H            3.62865277395492        2.94297660514389        0.69504974740358
