30
 energy: -55.721941533451 gnorm: 0.000599264699 xtb: 6.6.1 (8d0f1dd)
N           -0.13697424841136       -4.39898249174025       -0.00002674466193
C           -0.13306672504497       -3.24982860781489        0.00238188448956
C           -0.08426962340508       -1.84175974982410        0.00118672274895
C            1.17629923860301       -1.23987196328936        0.00211186209907
C            1.27946800830942        0.22757527755477        0.00199454636416
C            2.63420918949467        0.54782571594856        0.00341954407579
C            3.25410970950540        1.79477015906542        0.00433767974370
N            3.85471028912969        2.77641837838336        0.00362690066910
C            3.36495034808861       -0.69173603201882        0.00418185094542
N            4.70097664505849       -0.76814285513402        0.00553851697244
H            5.24982371036544        0.07539654648211        0.00602359451145
H            5.16431188864358       -1.65961923330976        0.00609869622861
C            2.45825137060494       -1.76622310365849        0.00343082916811
H            2.71933028471369       -2.80701554774564        0.00385029236997
C            0.11768833099835        0.99448789278111        0.00072192605542
C            0.17621669211843        2.40547255141196        0.00054170662975
N            0.21459650941023        3.55192813034163       -0.00023464363944
C           -1.16397620465161        0.39636057432981       -0.00043913867165
N           -2.14350046250834        1.28067644772079       -0.00189126492250
C           -3.45550266454361        1.17137318998003       -0.00301106889118
N           -4.08417254119045        2.36854737567040       -0.00386475391046
H           -5.08386708732371        2.44805709848839       -0.00734781943146
H           -3.51036854599614        3.19422937729014       -0.00516143918874
C           -4.25401044194636       -0.00168982455383       -0.00280388942601
C           -3.80119307411455       -1.29660530850148       -0.00172402867014
C           -2.48656785602594       -1.76557099678843       -0.00062289640456
C           -1.27591348791034       -1.07694701705601       -0.00007387901565
H           -2.39124054142428       -2.84594768295079       -0.00008904236677
H           -4.56163526261810       -2.06731907439896       -0.00182413913674
H           -5.32462501082895        0.15578626663632       -0.00357710853440
