28
 energy: -46.681815465266 gnorm: 0.000866219371 xtb: 6.6.1 (8d0f1dd)
N            0.17354052626458        3.53976737811938        0.00679853674319
C            0.22056830942635        2.38980948291475        0.01094324423892
C            0.32693789120244        0.98853651944089        0.01161886342299
C            1.62328390272663        0.44590439197869        0.00564576860990
C            1.78038220438406       -1.01737554676042        0.00267863594741
N            3.07974670571940       -1.35716225900610       -0.00031373530552
C            3.75006254819979       -0.19384601467207        0.00030779021189
N            5.09420323910976       -0.17426542262550       -0.03153913054398
H            5.58973877255415        0.68811742460607        0.10341260980243
H            5.58250267901611       -1.04736591918152        0.06046687217610
C            2.89983488542409        0.95238806426820        0.00374157808735
H            3.21659042555368        1.97655080990591        0.00450864830088
C            0.67320322991942       -1.82498277435336        0.00574277714429
C           -0.63257608966999       -1.29301107269082        0.01029013386772
C           -1.66684553298133       -2.22608487039844        0.00660933508848
C           -3.05158731607991       -2.08604566979949        0.00274439152117
C           -3.81534278621629       -0.94578809899966        0.00733625417402
C           -3.37220720708116        0.39013404681088        0.02135776310280
N           -4.34175963469836        1.35712470096220        0.08697088304223
H           -4.07933864561106        2.31429160112956       -0.07205796825594
H           -5.29225354595394        1.10785629753943       -0.12219918289375
C           -2.05181393510663        0.82505294823782        0.02319114577478
C           -0.81590719184473        0.16439583143837        0.01592204263599
H           -1.95697233533796        1.90746052558671        0.03266411443609
H           -4.89058150095537       -1.07890383281460        0.00437095617313
H           -3.60441607184592       -3.01748829575826       -0.00605534391862
H           -1.32678463114577       -3.25562616795305        0.00326109941032
H            0.80350406662797       -2.89689300572567        0.00229980630575
