27
 energy: -46.955113991905 gnorm: 0.000884837275 xtb: 6.6.1 (8d0f1dd)
N           -1.23797956334959       -3.63529320610255       -0.02498173849560
C           -0.98030527374170       -2.51611313542422       -0.00761504495120
C           -0.67940740228264       -1.13884675943580        0.01092228079634
C           -1.71085399534553       -0.21601350348917        0.02140579678147
C           -1.35831581039383        1.22464957145019        0.03781326449439
N           -0.10513719820538        1.66151979178048        0.03933464766703
C            0.88980064726972        0.77972573355367        0.02902317269863
C            2.14605019295918        1.40866263956535        0.02493750540012
C            3.45104255682978        0.93898071844469        0.01159085774035
N            4.45133804136318        1.87239027780857        0.05851710035760
H            4.21893430110222        2.83700738347693       -0.09976242917252
H            5.39337528784509        1.59083465778177       -0.14817236928582
C            3.85186665210094       -0.41283152778711        0.00381080227807
C            3.05776890643012       -1.53059491223146        0.00658840493534
C            1.66841135529626       -1.63895174717578        0.01070230626920
C            0.67006994047013       -0.67348184792561        0.01649261778893
H            1.29991026537940       -2.65950630719627        0.00700606425252
H            3.58405941687712       -2.47718159648891        0.00107393768655
H            4.92272913205881       -0.57824011326390       -0.00221645229117
H            2.04165345051692        2.48848683180884        0.03402742222847
C           -2.56533310736448        1.88739927554051        0.04496381947295
C           -3.54881223857403        0.86192400025028        0.03244747781413
N           -4.87712316951471        1.03432903755648        0.03541939038227
H           -5.27943873547983        1.95324185145129        0.03388016876769
H           -5.46531342096960        0.22025899389781        0.01668902155193
N           -3.03189047567129       -0.38722111283223        0.01799676915882
H           -2.74930437340626        2.94195156348610        0.05756745187354
