33
 energy: -53.253074103282 gnorm: 0.000957197915 xtb: 6.6.1 (8d0f1dd)
N           -5.43576793819834       -0.00539077460177       -0.17531505893066
C           -4.28398041463887       -0.01942757563507       -0.14359554729598
C           -2.89361925997913       -0.03571110026095       -0.10228744731958
C           -2.05280637330136        1.13992401438034       -0.11269463231152
N           -2.56301835579499        2.42716910340264       -0.16337362600477
H           -3.56136972133276        2.46421909632054       -0.00585064797692
H           -2.05992118756282        3.10260174783970        0.39412501040914
C           -0.73542524799323        0.72245847052293       -0.09482656978552
C           -0.72901723078980       -0.72095466123572        0.01326269376677
C           -2.09277720302480       -1.16609552217278       -0.03395069777863
N           -2.51721779828307       -2.48548714174014        0.01532639249487
H           -3.51801232872061       -2.57690517469638       -0.10725074923913
H           -2.00478797788490       -3.11092658381686       -0.59264035300449
C            0.43011147997159       -1.42289932488426        0.22599791897980
N            0.39849070412304       -2.76648341520568        0.50040389552088
H           -0.49137390201073       -3.10619997955601        0.83363348471922
H            1.20024300733864       -3.15264879524486        0.97238200639980
C            1.70114429765120       -0.72745520459377        0.06984426038545
C            2.78754949984576       -1.50101564121266       -0.22609606390094
C            4.13560989408008       -1.13610348072602       -0.54619785106799
C            4.75746768423221        0.03278053745127       -0.30627728379577
C            4.18197524812763        1.19361547837907        0.31761438719915
C            2.87741911303115        1.48055618755205        0.46990925491906
C            1.68281271154535        0.73475138888365        0.11817776370064
C            0.49939966652758        1.42786041967851       -0.02517831211577
N            0.45238951024910        2.82327048329041       -0.07141651073731
H           -0.31622737248362        3.16199024441722       -0.63168643119986
H            1.32394570518176        3.25573072886705       -0.34083808317781
H            2.65949986007006        2.42242849371191        0.96386464828674
H            4.89876278770945        1.92483398880574        0.67054810658916
H            5.80590479400604        0.11557128905942       -0.56639443148800
H            4.71859067975625       -1.93237057707412       -0.99369493587948
H            2.61000560385075       -2.56445878550474       -0.32674646136121
