26
 energy: -47.239840210348 gnorm: 0.000684633454 xtb: 6.6.1 (8d0f1dd)
N           -0.21519368834502       -3.53110670265358       -0.08787248127796
C           -0.29150831414283       -2.38457798504336       -0.06382782769711
C           -0.37300100119425       -0.97944744716244       -0.03395690167700
C           -1.62775199995901       -0.38339070879753       -0.01623525237866
N           -2.85059635112652       -0.90260766237391       -0.02444001181291
C           -3.65337506428074        0.18861923533918        0.00928156815741
N           -4.98011142854299        0.07522889806364        0.01220797993640
H           -5.39228799076929       -0.83974232884476       -0.01234867346018
H           -5.54388950067465        0.90530089817669        0.03491630660404
N           -3.04096240142312        1.39625687708351        0.03891636036146
C           -1.74597184469138        1.08951903752117        0.02370861685964
C           -0.61261742718336        1.87482336450310        0.02631132868888
C            0.65845833883907        1.29763028380715       -0.00532402248071
N            1.64054025133159        2.19689356850455       -0.03455686629482
C            2.93724641260781        2.05090970278484       -0.05268108697846
C            3.75255413212216        0.92632305860709       -0.00924976612823
C            3.34417209390948       -0.40913489647427        0.02841893520574
N            4.30357803774477       -1.36766097044393        0.09136653072422
H            4.05473880562943       -2.33982525919849        0.05443397677207
H            5.27474863006316       -1.11829484020440        0.04300862922584
C            2.01021699965462       -0.85806237984832        0.00947828442605
C            0.80214937987032       -0.17960870557350       -0.01568335411912
H            1.91556588611400       -1.93996645112332        0.02261580809283
H            4.82061784786241        1.10423197755336       -0.00607535855021
H            3.45655425112715        3.00585341868155       -0.09797334281793
H           -0.68073729364270        2.95049151501606        0.04075482531846
