27
 energy: -46.955666823956 gnorm: 0.000967590506 xtb: 6.6.1 (8d0f1dd)
N           -1.39099744669939       -3.40300803249977       -0.66437297798672
C           -1.23703175391681       -2.28601117950934       -0.44409986036175
C           -1.08842205747859       -0.90954404402625       -0.19316454671934
C           -2.24110481625664       -0.07880249668742       -0.15178056584064
C           -2.08171022169251        1.32932285846496        0.22588051183419
C           -3.40851505602824        1.90139215767449        0.26111665367910
C           -4.28245765110655        0.92036658363760       -0.06841141986747
C           -3.57318414445933       -0.31280559153723       -0.32472036503793
H           -4.03420499137844       -1.24392083188059       -0.59613669059457
H           -5.35180660579968        1.01648332927311       -0.13572544559417
H           -3.62672159983232        2.92394723920506        0.50364329728542
C           -0.86008200774452        1.85534818365479        0.45043598755797
C            0.32672937907188        1.05847189003600        0.26093316091969
C            1.51553439803551        1.71860265040072        0.17238276309480
C            2.80764580266466        1.18320598084532       -0.20024659585177
N            3.22336010487808       -0.04334746871870       -0.13908925373354
C            2.45742019087018       -1.10566457774254        0.23809658902438
N            3.19047295677462       -2.16698044732625        0.65315710514188
H            2.71129373495419       -3.04677760373717        0.73889589062060
H            4.17771656918007       -2.15912101661704        0.46770003240326
N            1.17660897086887       -1.28321788490126        0.17728290131647
C            0.17416139355005       -0.39203023537330        0.05255973604004
N            3.71592316246981        2.09297319437162       -0.61900413917055
H            3.47263469085867        3.05611122028033       -0.75495466304410
H            4.61079863429546        1.75807109740481       -0.92924155201925
H            1.49048874347433        2.79761901375755        0.28458800897768
H           -0.73381788515299        2.89619268675055        0.71853150602637
