26
 energy: -48.021620267093 gnorm: 0.000688776051 xtb: 6.6.1 (8d0f1dd)
N            0.03124641688139       -4.11386251884484        0.73596142240202
C           -0.07134678841642       -2.99024087589085        0.52711962213140
C           -0.20870324677745       -1.60595988232562        0.28468898938757
C           -1.44667251628701       -1.02774760101004        0.18569697570363
C           -1.51945746479559        0.42495109254614       -0.11045616995180
N           -0.44924341920996        1.21198807810183       -0.12747016722428
C            0.74154616331569        0.68414068948462        0.02265238571294
N            1.71341979593333        1.57002982807399        0.23268848363761
C            3.00454111860678        1.49890685228811        0.18085479336935
N            3.67783248262097        2.54845124395359        0.69785589075621
H            3.13999008919183        3.31685599177249        1.06056012681048
H            4.66974848216938        2.64690549026531        0.58297688911887
C            3.78614195457611        0.45818674273724       -0.44829694039313
C            3.38162348394326       -0.82208745828615       -0.61677233585618
C            2.14571630029401       -1.40305726945972       -0.23110105278320
C            0.96014129205121       -0.78684170594796        0.06786865726382
H            2.12520469951284       -2.48805904725609       -0.26106733368904
H            4.09000512225862       -1.51239032512519       -1.05747548891373
H            4.77863878106207        0.73814186603179       -0.77619631764679
C           -2.86125504166273        0.73736298683466       -0.24754867570984
C           -3.42015120796688        1.98145908906352       -0.53960611701340
N           -3.90809261723659        2.99358141352322       -0.78300469321199
C           -3.61500533479565       -0.47352814117168       -0.02535870977406
C           -2.77685768095090       -1.51897785852777        0.24150906267769
H           -3.05339993913269       -2.53603659202984        0.44632816393027
H           -4.68901857618704       -0.51539271800020       -0.06853280643481
