27
 energy: -52.542826122621 gnorm: 0.000403973033 xtb: 6.6.1 (8d0f1dd)
N           -0.34324088678166       -4.37547015488662        0.00158734732458
C           -0.17638115898424       -3.24110245148174        0.00051117339234
C            0.02852038325962       -1.84247643726487        0.00064089634262
C            1.33547996512768       -1.36908908996051        0.00064311505178
N            2.47783591055823       -2.05288500598057        0.00081431808599
C            3.45752714453333       -1.14179470174465        0.00059703339903
C            2.99395128957123        0.18780276542407        0.00024795663496
C            3.77756803903527        1.34420570700937       -0.00002186224816
N            4.43919383918104        2.28254875630986       -0.00025914824706
C            1.59072524507785        0.08350275578573        0.00027493844046
C            0.53209106726016        0.97309403828301        0.00000519061677
C            0.79796923126408        2.35998006137080       -0.00126245311528
N            1.00109521890546        3.48941170302649        0.00061910236720
C           -0.81791261093786        0.50281680296378        0.00022802342718
C           -1.80208836388780        1.47383849609798        0.00024239733385
C           -3.21704962823644        1.39249456312713        0.00045937346130
N           -3.99859928477380        0.31764425169516        0.00010338735963
C           -3.61273463626671       -0.93270063676892       -0.00013553564706
C           -2.34594267897561       -1.51597926823268        0.00016204022317
C           -1.07053236491102       -0.94785071579917        0.00042265432898
H           -2.35566991463066       -2.59982826617347        0.00014280533919
H           -4.45032853275183       -1.62333109617282       -0.00052164068645
N           -3.89794468135581        2.55566889343652        0.00095345064814
H           -3.43399380369362        3.44605359236443        0.00120506174784
H           -4.90236268291696        2.51357641760113        0.00105391743613
H           -1.43160915733327        2.49422038233162        0.00015667757297
H            4.48585898906335       -1.45599645276108        0.00066547870986
