26
 energy: -48.027219750494 gnorm: 0.000268916589 xtb: 6.6.1 (8d0f1dd)
N           -0.20693830870367       -4.04862317541891        0.00028679930174
C           -0.13204736991228       -2.90230197335037       -0.00009792682907
C           -0.09787752840566       -1.49288018605316       -0.00010911000722
C           -1.33638584887810       -0.82369852136074        0.00040026184174
C           -1.36363271860711        0.65158878547221        0.00040396330212
N           -2.61720212125951        1.10481911450089        0.00096801091765
C           -3.39889183272381        0.00904491905379        0.00134990363832
N           -4.72823842046349        0.12202273324981        0.00195700931342
H           -5.12987115091936        1.04378893428906        0.00220121602288
H           -5.31950581565048       -0.68940855753689        0.00238251206372
C           -2.65125698992041       -1.21293334858902        0.00100681296427
H           -3.05694164320428       -2.20469458315551        0.00120550304622
C           -0.17382888034717        1.36004911932564       -0.00021586616999
C           -0.18851185081561        2.77349251640326       -0.00047834266850
N           -0.22538333090114        3.91897183892625       -0.00018428723755
C            1.08146961633823        0.69171353853171       -0.00084898594221
N            2.10046784439416        1.52625762715759       -0.00165121511287
C            3.39868162890646        1.31952289337122       -0.00230126026210
C            4.13180868741167        0.14243869731815       -0.00206046837492
C            3.62139735194483       -1.15589151029373       -0.00136718618141
C            2.30154240376192       -1.54815476942964       -0.00085584869065
C            1.11250342467023       -0.78884449302106       -0.00065623842127
H            2.13746903719898       -2.62080655782560       -0.00047556689246
H            4.35114038037081       -1.95557525540466       -0.00129778050631
H            5.20878389836497        0.24442324619082       -0.00248710762369
H            3.95875799794977        2.25061140924893       -0.00302998139187
