29
 energy: -56.780460195474 gnorm: 0.000747053834 xtb: 6.6.1 (8d0f1dd)
N            0.46873623576605        4.44209043958351        0.40773641628902
C            0.37137834518722        3.30826506844030        0.26680184175121
C            0.21264905328130        1.91397822012471        0.12554421881917
C           -1.06025231068930        1.34867419161933        0.18401845534238
C           -1.22838293001963       -0.08242269405886       -0.12927617061992
C           -2.59058872050221       -0.34223386958698       -0.14606952563891
C           -3.27519429440964       -1.53075391909868       -0.39775076381151
N           -3.93240970571877       -2.45396575052344       -0.59120243911684
C           -3.26973525783354        0.89459281879259        0.17483734079110
N           -4.59704232332833        1.00741683098490        0.25425633114295
H           -5.18013137931471        0.20379599249424        0.08535323268987
H           -5.02515278277530        1.88894128532173        0.47871461947507
C           -2.31685716267638        1.90566682633251        0.37067118439576
H           -2.52637652436444        2.93088054878152        0.60641470364859
C           -0.10380889611268       -0.90615582299824       -0.27477674617420
C           -0.29047924669373       -2.26904581533672       -0.59848303374289
N           -0.46924676429004       -3.34429086900005       -0.95448926580226
C            1.18344197916649       -0.36214033235337       -0.14195766224147
C            1.33806963197202        1.11491609038390       -0.17948693334873
N            2.41211213522226        1.74663485830729       -0.58344841522110
C            3.64376769394467        1.37940233707688       -0.77916685592982
C            4.28611946268532        0.26171489306166       -0.23390806782438
C            3.64919729319333       -0.84936304440208        0.27822001368450
C            2.28172493732066       -1.16595406324202        0.22255078911431
C            2.00113534055620       -2.45084625475246        0.76300098443923
N            1.86695738580050       -3.46183867831224        1.28610686017213
H            4.27713123715382       -1.62489522217082        0.70033085510144
H            5.36684258141538        0.27461455751517       -0.21271683784941
H            4.23703983856019        2.10598181201519       -1.32327405313213
