34
 energy: -56.987092365416 gnorm: 0.000955361332 xtb: 6.6.1 (8d0f1dd)
N           -5.87528840903883       -0.05807821970020        0.24347720084008
C           -4.72704309569366       -0.12924306083450        0.17058012853408
C           -3.34015057546090       -0.18837611524728        0.08637061343961
C           -2.57278007020103       -1.33852916073055       -0.11100151471232
N           -3.04813819554968       -2.60899271405840       -0.33503206896676
H           -2.41440805052769       -3.36248118919219       -0.12186357041872
H           -4.00390775162200       -2.76999339099754       -0.05691350204189
C           -1.20711399157770       -0.93505197958610       -0.14007061963607
C           -1.16691399290017        0.50639032880611        0.06783168464505
C           -2.47302276467794        0.95242819231129        0.19070368428405
N           -2.93110977105799        2.25716228647813        0.40628207001771
H           -3.94368486345908        2.29727629841319        0.40841307219243
H           -2.55072926218787        2.93451504745936       -0.24299435690325
C            0.07899257833913        1.16929600437407        0.10165888355476
N            0.05250261863630        2.54233883673217        0.35358571883747
H           -0.78866241956828        2.81174253723365        0.84450173868233
H            0.88526398401807        2.90193435257669        0.79815057228241
C            1.26274186945238        0.46007593973931       -0.11217253767292
C            2.49266047534367        1.15430676327008       -0.41133820908289
N            2.38006999639033        2.42446350735439       -0.90275746880967
H            1.48854877037057        2.71902951716390       -1.26423420305711
H            3.20178022831651        2.84735151384323       -1.30016150092931
C            3.78367223502591        0.70710729460549       -0.20768827821683
C            4.20236363808093       -0.54254415096425        0.30214062191020
N            3.56527315271394       -1.69466896070136        0.24211077384332
C            2.30096856318797       -1.86580249259434       -0.11513636196355
C            1.21094667652411       -1.00740372134166       -0.17735655638231
C           -0.04684511760304       -1.64413481168543       -0.25643216868985
H           -0.06815046407261       -2.72203447331992       -0.34982093359279
H            2.08145739236950       -2.91822782054169       -0.27964618197680
N            5.45206789776644       -0.62547070159170        0.81840111984103
H            5.78951025889732       -1.53157297203505        1.08938424015605
H            6.07657453410684        0.15851010051788        0.80751091011598
H            4.57441150475846        1.42151620074414       -0.40887282842507
