27
 energy: -51.750944592425 gnorm: 0.000995676874 xtb: 6.6.1 (8d0f1dd)
N           -2.92357151345908       -3.55984463455499        1.03589141304275
C           -2.55611978744727       -2.50952164384051        0.74126870280036
C           -2.14590080164137       -1.23029978394969        0.37651141549715
C           -0.83209556206501       -0.73154911390574        0.33965173749776
C           -0.90663913243260        0.68350377040045       -0.11708573982405
C           -2.24660155697982        0.96769431892214       -0.38586404833988
C           -2.81365803272608        2.14872033565009       -0.86182600752252
N           -3.35744558576492        3.08132613338669       -1.25895482398091
C           -3.01471702663433       -0.19753888772800       -0.06483947389531
N           -4.34054380546988       -0.29023617399292       -0.18084275346444
H           -4.87237279479308        0.49850536774205       -0.51039205300409
H           -4.81384251607813       -1.14285878458247        0.06806291924459
N            0.13875947539068        1.48161549786960       -0.16222788111300
C            1.31584484170465        0.96626428068805        0.16020190120578
N            2.24312616396711        1.76200851478291        0.61775666644708
C            3.51712814097837        1.54908677721118        0.87173722949688
C            4.34754860679765        0.59581763888263        0.32262080711325
C            3.85678768111910       -0.55286967477537       -0.34748328007773
N            4.68879883503834       -1.28649429263387       -1.11797657539699
H            4.37191262778704       -2.17806108615837       -1.45780334671026
H            5.66389354852607       -1.05713946684833       -1.17745736578226
N            2.66350676557147       -1.07776076006427       -0.13379755037937
C            1.52546058575961       -0.52667360834478        0.18934938939855
C            0.40249777560819       -1.32299961266591        0.46854584580313
H            0.51864979019903       -2.38236208356798        0.64536753964384
H            5.41822685590492        0.70150143161399        0.43178191226395
H            3.95724450464149        2.31252540876011        1.50547442543605
