29
 energy: -51.190185560734 gnorm: 0.000506003182 xtb: 6.6.1 (8d0f1dd)
N           -0.79253617708825       -3.90705698134635       -0.01569994565654
C           -0.70223747700804       -2.76065718533474       -0.01030652567421
C           -0.62918058813129       -1.35473623286400       -0.00834970276491
C           -1.81345156366944       -0.62280793383727       -0.02117559738894
C           -1.69999316103299        0.86261466960071       -0.02277544784435
N           -0.53191227404572        1.48710965829997       -0.01480392051288
C            0.59240492940469        0.79016552616092       -0.00322908428795
C            1.74488908582988        1.61468271015716        0.00006710296383
C            1.45587636233380        3.00512006678790       -0.01138898867663
N            1.30723763315167        4.14239810009678       -0.02092682895074
C            3.10252525581909        1.30838173233205        0.00994625273677
C            3.72343859150846        0.07834908888491        0.02004052640740
C            3.13382080522809       -1.19166869969160        0.02571714974393
N            3.97433560640089       -2.26614155261732        0.08282305763280
H            3.60625031799321       -3.19118762963616       -0.05252392108934
H            4.95961715450624       -2.13314216359192       -0.06036593586929
C            1.76150723898701       -1.47998199421294        0.01774145636063
C            0.62597209489709       -0.68357321362588        0.00335200046927
H            1.54728809124880       -2.54580974496991        0.02437396084183
H            4.80655828609907        0.08922768443499        0.02694346045108
H            3.76046720269474        2.16971873141952        0.00746053988376
C           -2.97420665373108        1.37607189215710       -0.03617518069186
C           -3.87465586660389        0.27487359816900       -0.04321897386842
N           -5.21318547637264        0.38456016997621       -0.05851386012056
H           -5.79137163835286       -0.43662656429204       -0.05868192377263
H           -5.64765879632064        1.28986977918611       -0.05977765436830
C           -3.15601531206271       -0.94079173588644       -0.03427365264097
H           -3.58579800546589       -1.92471997184454       -0.03700444637151
H           -3.24872664281724        2.41199227988777       -0.04076717124125
