26
 energy: -47.235865042162 gnorm: 0.000744899880 xtb: 6.6.1 (8d0f1dd)
N           -1.10949463523566       -3.51265429006353       -0.77121716766883
C           -0.91223202095778       -2.40515194401871       -0.53951681535172
C           -0.64457073215430       -1.05018431465796       -0.26456884165499
C           -1.69536639400953       -0.15001417941690       -0.14133965757461
C           -1.42231783462101        1.26681552672620        0.19980506926319
C           -2.66600879252783        1.85432987724169        0.28096223541747
C           -3.59377810653015        0.81312993333395        0.00069912235743
N           -4.92660065918702        0.91453647139703       -0.02880287985842
H           -5.46314609098306        0.09225826317980       -0.24351941978623
H           -5.38634993199757        1.78986222078250        0.14389438882756
N           -3.00120216012991       -0.37666630131690       -0.25283578543682
H           -2.91143944677819        2.87322775238983        0.50400442091242
C           -0.10828525388446        1.71361043477143        0.28426209416294
C            0.95096746959789        0.84237029967880        0.09010766528046
N            2.15312977707966        1.40143286034082       -0.05376583607655
C            3.34117968750122        0.86194747172872       -0.09558405782100
N            3.76290224573310       -0.31178540194826        0.43059245623720
C            3.00574099900188       -1.35245394936845        0.58042625423589
C            1.66549822034163       -1.56597591494685        0.20068507089021
C            0.68996430394807       -0.61589939036581       -0.04646074783807
H            1.33425243114608       -2.59800222428835        0.22415295358407
H            3.51415486620603       -2.19697165781081        1.03802445342747
N            4.33400820536057        1.62336762491847       -0.60699623638507
H            5.28321875974353        1.32952647882559       -0.46269575389072
H            4.13290321269400        2.57655956485616       -0.84982408526112
H            0.11201597674421        2.75963813413414        0.43239840940569
