25
 energy: -53.089536685481 gnorm: 0.000651621022 xtb: 6.6.1 (8d0f1dd)
N           -5.17255740477863       -0.74050264840607        0.59499284167198
C           -4.04631665266031       -0.60547596664159        0.41599400960818
C           -2.66282938905132       -0.41707618995762        0.20242943789683
C           -1.91838766702610       -1.57939798228275        0.02807640153738
C           -0.55497412583020       -1.75447443441235       -0.11679174582381
C           -0.13374063344111       -3.06759705339943       -0.44453411616472
N            0.17228027437724       -4.13998952269446       -0.70782482563202
C            0.50184020326774       -0.81096580325986        0.05514121039141
N            1.72330490945030       -1.30178784337147        0.10666824501062
C            2.79391256157665       -0.59415095026213        0.00775241879683
C            2.62291432940622        0.92370768534933       -0.02317371860801
N            3.82049155747591        1.43413795889670        0.15976139852478
C            4.64567758066827        0.38638356702113        0.22394039084315
N            4.07288661804386       -0.81847113674788        0.21591501593441
H            5.70773234618123        0.50781859260152        0.32065610112914
N            1.42457421461799        1.38369064882116        0.07907391331564
C            0.33294475172823        0.63525833272934        0.05067871804459
C           -0.88777528010126        1.34375934108064       -0.11294864985837
C           -0.70834776162204        2.70567260654279       -0.45291682880979
N           -0.62025686446916        3.81603682037202       -0.73059984980294
C           -2.22616115525448        0.93286947083057        0.05222059118635
N           -3.17693011990723        1.88306475406354        0.03182948754713
H           -2.92799324019563        2.85139887400141       -0.09076069129369
H           -4.14804766717470        1.63329730748104        0.12675150252296
H           -2.50136668868152       -2.49416473575334       -0.00855941686632
