29
 energy: -56.775605718689 gnorm: 0.000989007941 xtb: 6.6.1 (8d0f1dd)
N            5.56314153250336        0.00105920902576       -0.00480833207306
C            4.41527537627547        0.02125371183607       -0.02234885569036
C            3.00648278148629        0.01065431825537       -0.01965402401538
C            2.37407519455648       -1.20317320011515        0.32603334288767
N            1.11263508060993       -1.51766895129237        0.02986980903140
C            0.04440041699321       -0.81138508389394       -0.14675914710728
C           -1.13936989399237       -1.60481289755702       -0.43293890738029
C           -0.95310940521445       -2.96003291667041       -0.78479902099167
N           -0.80711718367350       -4.05764318214141       -1.08088804840624
C           -2.37561079765263       -1.07234476271601       -0.21687345033605
C           -2.51830833913779        0.31619566156963        0.23406462685758
C           -3.84767700381809        0.54029659724563        0.45470276159622
C           -4.56456356467479       -0.67390572576040        0.13779503141298
C           -3.69691311318354       -1.63812384076411       -0.26526077760378
H           -3.91831955534635       -2.64405145655594       -0.56501437015024
H           -5.63159736884251       -0.77314240700178        0.21814531780424
H           -4.29765769643148        1.45254814412273        0.79777793231440
C           -1.36951749563602        1.15085092515947        0.28589197698546
C           -1.56808897300453        2.49538568890351        0.66870337202404
N           -1.79210372133014        3.54620181072919        1.07055729988148
C           -0.11202191634388        0.63500306615758        0.01759403765262
C            1.00042851862307        1.49365191069420       -0.30551033807416
C            0.68134981772921        2.79844666519917       -0.76259616861051
N            0.49509674453666        3.83730833176695       -1.21057231399965
C            2.34491209761397        1.20103774166736       -0.37264744375288
H            2.99060990957434        2.01142384110579       -0.69134467686786
N            3.07575155772708       -2.20484116304171        0.88420127874769
H            4.06809445424895       -2.12101085947939        1.02772156255537
H            2.62925990320504       -3.10082155975059        0.98763724130749
