29
 energy: -51.194363847741 gnorm: 0.000692309918 xtb: 6.6.1 (8d0f1dd)
N           -5.68053165977725       -0.05530682444458       -0.04997277130566
C           -4.53417284533613        0.00966150291353       -0.02191723940864
C           -3.12491198654240        0.10582686430868        0.00084747556102
C           -2.44469019875101       -1.10123624629920       -0.00012768762918
C           -1.07504518767911       -1.36451907269621        0.00848127519320
C           -0.82408066398334       -2.76327580486317        0.00871125816009
N           -0.71489900340561       -3.90545219821440        0.00921112207893
C            0.04983791282537       -0.50686944242806        0.01204472121927
C            1.30326902523973       -1.11666947363883        0.01203661197713
C            2.46730638487239       -0.37014646605249        0.01215210063037
C            2.39253997590391        1.10347540863609        0.01394301863750
C            3.70674477860000        1.52963393902123        0.01463253241937
C            4.48039021345421        0.34036110376207        0.01294105875730
N            5.81691986825979        0.25344654572418        0.00906873436519
H            6.23785023849939       -0.65871091072430        0.01809182596785
H            6.39196598994585        1.07559582188213        0.02654600907426
N            3.72954900128566       -0.78902055825883        0.01120577825591
H            4.08827752278083        2.53134437882690        0.01631370075526
C            1.14611459468815        1.70957526382646        0.01466186774738
C           -0.03557149773765        0.96959675038830        0.01402963460042
C           -1.21804273190352        1.72419831391916        0.01675910356264
C           -2.57241394502534        1.41501549485059        0.01502384405435
N           -3.45174371140772        2.45838206403402        0.06452437174866
H           -3.11647310235100        3.39646717801413       -0.06017020659562
H           -4.43512340442124        2.28825715891842       -0.05785386844338
H           -1.03481592257567        2.79502247527745        0.02374004165863
H            1.08791116505297        2.78970243868799        0.01681401500112
H            1.37827758487865       -2.19346027816230        0.01081762306097
H           -3.07816412188991       -1.98247316230897       -0.01022878990433
