23
 energy: -48.077955147391 gnorm: 0.000442844197 xtb: 6.6.1 (8d0f1dd)
N            0.79226463959979        3.41910394317390        1.32061355288738
C            0.67580663223146        2.36028266561028        0.89617652166732
C            0.51593588276104        1.04884114214582        0.40507293642530
C            1.57692777235959        0.15562450239945        0.29596946597062
N            2.87347312032436        0.28867278151933        0.51516721981770
C            3.41303134864793       -0.81945215919360       -0.05631865061070
N            4.71799974952760       -1.04048456424912       -0.03909478282219
H            5.32196440933219       -0.38118545852193        0.42046306911454
H            5.08291613872137       -1.85435042823869       -0.50263675086108
N            2.55520244111038       -1.66902968542951       -0.67676122305598
C            1.36925564591953       -1.13756930486763       -0.45722549230675
N            0.18168305423249       -1.60360472291127       -0.76555497326881
C           -0.85131673542358       -0.85212129565491       -0.44096968908245
N           -2.00001436252343       -1.40245151519096       -0.15568756658578
C           -3.18253026862046       -0.82825613395890        0.05578595070951
N           -4.03524126935848       -1.52007036343048        0.82262785178646
H           -4.98425905881817       -1.20066154460888        0.90470350170991
H           -3.76731157998438       -2.42909553965629        1.15666572833601
N           -3.66679391076305        0.27580100792561       -0.52822747062781
C           -2.86269773669557        1.23188229334785       -0.92649105226471
N           -1.63887627391397        1.46277986995118       -0.52353709556872
C           -0.70259173724580        0.62809821206827       -0.17165117922194
H           -3.31235357962063        2.01600234717022       -1.52495062974785
