24
 energy: -49.351752247112 gnorm: 0.000978532627 xtb: 6.6.1 (8d0f1dd)
N           -2.86745651692152       -3.00938632831261       -1.01115019066669
C           -2.26063752131092       -2.08903198008838       -0.70189119677315
C           -1.48578223031940       -0.96068450878068       -0.35315317648334
C           -2.01706243643250        0.29556749187610       -0.23434410215092
C           -1.19203798718391        1.43952514241473        0.21414835179780
C           -2.06213258459030        2.48993161324284        0.31257910522296
C           -3.33753364060119        1.96136098737816       -0.08348833199005
N           -3.30960233415017        0.69121026309585       -0.40198077637623
H           -4.25937019221321        2.51292690895970       -0.13490397362424
H           -1.85712959736699        3.49926953738769        0.60816827633192
C            0.21223879116095        1.28249147299857        0.33770138845294
C            0.98984361478755        2.42345312252732        0.63599645197756
N            1.56505660651209        3.36500723451184        0.94756305364218
C            0.76847963629797        0.02733682222183        0.17411516379366
C           -0.12085327064068       -1.15836025527682        0.07338626608241
N            0.20152091589160       -2.34071848196075        0.47421988814725
C            1.37220165555015       -2.81445155391593        0.86645314178955
N            2.52595487100348       -2.51852852184182        0.34905993725002
C            2.81248276718651       -1.39274624966620       -0.28546543345914
C            2.12954561025690       -0.18036172360588       -0.22143945246681
C            2.81305360571080        0.92192022734914       -0.79663728141422
N            3.39379390418830        1.76229185711813       -1.31614937518887
H            3.75961762626337       -1.40828516324656       -0.81343694677649
H            1.33341827162113       -3.65026839738133        1.55417693088286
