32
 energy: -59.160064099355 gnorm: 0.000818150042 xtb: 6.6.1 (8d0f1dd)
N           -2.55807152700988       -3.63454534162487        0.01641438283634
C           -2.39416351531352       -2.49743105294181        0.00091925569411
C           -2.31306554012260       -1.08165431154005       -0.00754111385531
C           -3.55181832971402       -0.40342465936985       -0.02062092944504
C           -3.73894733320164        0.98029956875146       -0.00442100577411
C           -2.80253903661992        2.00612777014974        0.02073119695192
N           -3.27826211747544        3.28249310524174        0.08351261527510
H           -4.25660869055325        3.46058880430932       -0.05614129950601
H           -2.64446441118088        4.05348588064524       -0.03053619050684
C           -1.39947872641676        1.88329578765950        0.02121710550181
C           -0.56057064996889        0.78725895358934        0.00633675986226
C           -0.97738976120653       -0.62097391209483        0.00174558803747
N           -0.11054099343834       -1.62640475602886        0.00714247054233
C            1.18988756474399       -1.38306586518672        0.00742593468208
C            1.74223052360285       -0.00855656934835       -0.00063668757589
C            3.13514572027878       -0.12199265187386       -0.00472810863268
C            4.10191223182554        0.87863440078554       -0.01333838829688
N            4.95871204595311        1.64789080437878       -0.02228821190362
C            3.44097241445093       -1.51935298366831        0.00191682462055
N            4.68566113338113       -2.01316345243699        0.00072508805229
H            5.47294895126170       -1.38663107827585       -0.00557798373457
H            4.84293710014113       -3.00521847001446        0.00526410786780
C            2.24548117813487       -2.27174979989492        0.00959237551586
H            2.17606739674979       -3.34119127976829        0.01511515004651
C            0.84753697516701        1.04779274590120        0.00018047169150
C            1.32276355837353        2.37518565047799       -0.00631109417194
N            1.69785552955035        3.46107814930281       -0.01353672464232
H           -0.88389286049382        2.83895222219853        0.03520708976432
H           -4.77536593455447        1.29961074495713       -0.01031730144784
N           -4.67490940593377       -1.16851616681026       -0.08189887738755
H           -5.57836864779190       -0.74574851026393        0.02964711248522
H           -4.60055965241895       -2.16859018660632       -0.00589481444685
