22
 energy: -44.335149415567 gnorm: 0.000728734577 xtb: 6.6.1 (8d0f1dd)
N           -0.53431206592064       -3.37401963203836        1.30283356692242
C           -0.62734341158828       -2.29079838956320        0.93841165528208
C           -0.70752519052047       -0.95320169767502        0.50368069849338
C           -1.91139616178455       -0.33639466335587        0.18810410392743
N           -3.16377196239304       -0.77859850040241        0.23122638821489
C           -3.88172737558068        0.23662392141456       -0.27441652042132
N           -3.22157626237363        1.33154998840423       -0.65506414703098
C           -1.94119243512244        1.04730658768349       -0.39384209740888
C           -0.80879807048238        1.82392147318941       -0.47733951354871
C            0.38518532942688        1.26920014235674       -0.00435750284759
N            1.36998457299786        2.03680314194090        0.38709473448513
C            2.57707947107010        1.70838147716062        0.78832776941390
N            3.32770445182031        0.71317613449938        0.38906649525080
C            2.80625807124945       -0.36016707082736       -0.21523075699810
N            3.63068234261053       -1.10767549609947       -0.95713462227098
H            3.32364163769258       -2.01190777737413       -1.27211630377634
H            4.60315589897156       -0.85729508442008       -1.00229425822231
N            1.58697611958037       -0.85553471378317       -0.00257656466369
C            0.47192789468879       -0.22474634586490        0.22573392676429
H            3.06758910330881        2.44303436754199        1.41836327634707
H           -0.84942145875688        2.86079305979400       -0.76930847801655
H           -4.95084045789657        0.16712401181996       -0.36480817840063
