30
 energy: -61.294754065298 gnorm: 0.000699332600 xtb: 6.6.1 (8d0f1dd)
N           -6.06993293239018       -1.16599249057671        0.31867329394136
C           -4.94994235716037       -0.95009504405707        0.21562922446992
C           -3.56185846207898       -0.67867619892821        0.09271394299440
C           -2.70913444053524       -1.77521501724901        0.18963669716222
C           -1.32694023732420       -1.79085443564750        0.05721460523211
C           -0.74700856068581       -3.09221062785663        0.08891263261878
N           -0.35941211221061       -4.16909035102929        0.12504574920838
C           -0.37506797886687       -0.74652463322118       -0.04117125772282
N            0.86299683649589       -1.21729506905484       -0.12953669674708
C            1.88674991660521       -0.39399104661564       -0.07449965931316
C            1.72594528500442        1.06173489798378        0.14935624376897
C            2.97585350711365        1.62516737848335        0.26474155430166
C            3.93016534952941        0.59059170823339        0.09201170371542
N            5.25392782655518        0.72748049800243        0.11864375530835
H            5.67625948111893        1.62671550922891        0.27800644822600
H            5.84542165486257       -0.07719159924414       -0.01645733731879
C            3.25259259069327       -0.65868856214911       -0.11768472449532
C            3.90987621842995       -1.87295105891640       -0.31619737112007
N            4.52283279108086       -2.83140326753138       -0.47723811308206
H            3.20255190276936        2.65899048401266        0.44263727974905
C            0.41723269171490        1.56785812042307        0.17009664940470
C            0.28775206760075        2.94640908410324        0.45822399665795
N            0.32078233749912        4.04208457597003        0.79669215888150
C           -0.67078737294027        0.69600253965971       -0.00357652941783
C           -1.96478549859444        1.24188562219966       -0.21563521035159
C           -2.04581202016351        2.60687694826766       -0.61337942599014
N           -2.22188621252954        3.65272870256834       -1.04773051506349
C           -3.22065925028984        0.65249422957186       -0.16523938589989
H           -4.05540455241547        1.32548745957659       -0.32905656139410
H           -3.18050656518857       -2.73896220550789        0.34515363007628
