29
 energy: -56.781969123402 gnorm: 0.000662639123 xtb: 6.6.1 (8d0f1dd)
N            5.69600875109495        1.24319971022157        0.15209809162823
C            4.57943158177873        0.97509934978543        0.13438648813117
C            3.20198163473442        0.68221023072348        0.08963400294624
C            2.33249943766772        1.73430625499823       -0.27996524461638
N            1.03339207427071        1.78174644096417        0.00680638687767
C            0.13000386325042        0.86750711661361        0.16785662997907
C           -1.18468238880326        1.38667188923258        0.44443909590173
C           -2.26295705683958        0.60900609837925        0.20903469755454
C           -2.12510302651634       -0.76834410492038       -0.25486075816304
C           -3.38314849762873       -1.26601444466443       -0.48842690639016
C           -4.33809851656584       -0.24996996169221       -0.17284655542519
C           -3.69175265694846        0.88540856525858        0.24949789632650
C           -4.24578819540284        2.10375213435560        0.64363432888630
N           -4.67736007758514        3.11866547413282        0.96687358773370
H           -5.40333221475459       -0.36727722393154       -0.25733081493007
H           -3.62526753154979       -2.25051919953036       -0.84224059405441
C           -0.82935414467610       -1.34542453745616       -0.30953365654648
C           -0.73995092200132       -2.69504790049194       -0.71481314682426
N           -0.73879814302956       -3.76213683464749       -1.13587492937716
C            0.28938008308219       -0.57950656236219       -0.01937967878784
C            1.54895431997388       -1.19190917949922        0.31171286483475
C            1.50908386162980       -2.54607709398346        0.73453106929050
N            1.54764859158996       -3.61199819733212        1.15492530151613
C            2.80060022162410       -0.62249286595473        0.42018917228393
H            3.59495666481493       -1.28276357248603        0.74907530314409
H           -1.26446233023239        2.42908589472329        0.71345153693422
N            2.82512768610466        2.85316388248034       -0.83974180842813
H            2.20602808292181        3.63143567673425       -0.98927197566882
H            3.81417920209510        2.96469742605029       -0.98607192875683
