25
 energy: -52.314339455410 gnorm: 0.000437253445 xtb: 6.6.1 (8d0f1dd)
N           -5.60787410999140       -0.22776403993809       -0.18049795494311
C           -4.46151701101287       -0.16489057501005       -0.12263929623356
C           -3.05906586898963       -0.13181399341179       -0.02193142656016
C           -2.38924908525294       -1.40211006852251        0.07054256514328
N           -1.12516067812120       -1.62533686754043       -0.18024365074426
C           -0.04268106493866       -0.88742678066471       -0.12341262794864
N            1.08398535354841       -1.47121793196416       -0.50786552859804
C            2.23724222084975       -0.87327916908289       -0.43304820609644
N            3.46464622724644       -1.33196503045770       -0.51122331011007
C            4.23510608747860       -0.32264669311017       -0.02253279891694
N            5.55948759143328       -0.41937898036132        0.02320724669460
H            6.00428618047871       -1.24563584047441       -0.33439579780302
H            6.09114721726464        0.32744229086949        0.43332157933181
N            3.57481903621928        0.73652192041395        0.49125947114829
C            2.31128650494259        0.49875467337470        0.20445895978260
N            1.19952365770758        1.08725491783058        0.49811399868364
C            0.02787562566919        0.53576556413689        0.27195313517541
C           -1.08139102880074        1.40748941243717        0.06045939110337
C           -0.74631356670224        2.77494922613492       -0.09440861894774
N           -0.51094584137072        3.89080319515417       -0.21400863456738
C           -2.42912194051628        1.10317723488999       -0.08396356524626
H           -3.07980881514519        1.95621906363842       -0.24456964737107
N           -3.13030311198289       -2.49454598487738        0.31501987826419
H           -2.67953604664717       -3.39336411070512        0.28244304698314
H           -4.13243985776796       -2.43533264246075        0.38562771687527
