30
 energy: -56.504778547650 gnorm: 0.000392400381 xtb: 6.6.1 (8d0f1dd)
N           -5.68423123167541       -0.43520173079280        0.16903604895247
C           -4.54671779948541       -0.28971229298923        0.10765556276403
C           -3.14591697543397       -0.12029212866895        0.03030097891293
C           -2.72383882979873        1.22405620863047       -0.08986278299813
C           -1.46340425324263        1.74956652133292       -0.10387106060615
C           -1.46789258348549        3.16402500823754       -0.23052445413438
N           -1.54045382404010        4.30330222237462       -0.34202061350570
C           -0.16307928137003        1.11612097414360       -0.01481119653443
C            0.92521633177371        1.95853873313090        0.08076024696071
C            2.23819256495664        1.47541965303461        0.10176248836584
C            2.44326944367733        0.04362668732423       -0.01729236434168
C            1.39625558560135       -0.80559054433646       -0.11350506525580
C            0.03838565999552       -0.32625653285837       -0.07151493356026
C           -0.93109151264814       -1.32611965273517       -0.06559167326584
C           -0.46464944312788       -2.66428747375268       -0.17198052409032
N           -0.18721649696790       -3.77481633799679       -0.26679948537724
C           -2.37119821958587       -1.28060631817660        0.06082408839768
N           -3.01186646016859       -2.46117957707006        0.20156047550099
H           -2.51275544466894       -3.33440819198315        0.19319582672018
H           -4.01673538707693       -2.47594356319629        0.26264758075262
H            1.57248400042011       -1.86858929546300       -0.19372632331638
C            3.88207217415689       -0.17597255514716        0.00165324951967
C            4.49566346742317       -1.42455359205567       -0.09021176350230
N            4.98336940980790       -2.46298982664714       -0.16425111807669
C            4.47608751331003        1.05833485299785        0.12575748768016
C            3.47864758723404        2.07374302440462        0.18817795256925
H            3.67706133037375        3.12467972343597        0.28402488879045
H            5.53543398326019        1.23721895616753        0.16870747109394
H            0.76719424629782        3.02565053175096        0.13265439194252
H           -3.53722102301242        1.93825458250377       -0.15996178715820
