35
 energy: -61.500741271238 gnorm: 0.000550804500 xtb: 6.6.1 (8d0f1dd)
N           -4.52663874048638       -2.51845933155906       -1.09660957136634
C           -3.69266720428852       -1.81221199575666       -0.73468753614174
C           -2.65598192050082       -0.96095989623398       -0.31205547592182
C           -3.05696317958930        0.27150817416644        0.21798790996801
C           -2.28417976634282        1.37182424592318        0.48624073983672
C           -2.95667604715156        2.45612496095861        1.08235366794272
N           -3.49475756968615        3.33935382172224        1.58741941658441
C           -0.90615087069383        1.60325693496439        0.09267711606758
N           -0.59816432524613        2.93406137503997       -0.00571746743914
H           -1.26352579305149        3.57826044981758        0.39381848272283
H            0.37154031810007        3.20498252500597        0.04754461938918
C            0.04534121728348        0.62658455587020       -0.16034999068155
C            1.37981142152506        1.02335393158245       -0.53393654441219
N            1.63352347185210        2.18988723938958       -1.22318504144088
H            2.56373592446066        2.22151002789007       -1.61759274118795
H            0.90658754376868        2.50007912481750       -1.85094904135557
C            2.43385536947894        0.24792287743139       -0.10317346082973
C            2.21754705828594       -1.01948420123096        0.56001626522605
C            3.48564665850666       -1.49965998321257        0.85064065969188
N            4.44952499363075       -0.64120915475604        0.44894876106288
C            3.84920383166891        0.39790984660514       -0.11886707832548
N            4.56874687487858        1.45619417793703       -0.65924857136628
H            4.27550460937065        2.36660908682628       -0.32734942185399
H            5.55991880504640        1.31600271443841       -0.50492239529867
H            3.77155878691932       -2.41967506036865        1.32814535592812
C            0.92483106115760       -1.57462104460575        0.58652456879618
N            0.79926447403559       -2.88915919362979        1.01022994778728
H            1.60110353949609       -3.21849390783161        1.52508411205869
H           -0.08237896376563       -3.14368518698589        1.42969698458693
C           -0.15608618336314       -0.82125295515213        0.11434323197816
C           -1.34630720909748       -1.49071415452628       -0.30968376024113
N           -1.23114818279635       -2.77192092859974       -0.72173456077937
H           -0.32429248809230       -3.20040469728001       -0.79665885248944
H           -2.04355549526528       -3.25784028636754       -1.06454809738129
H           -4.11952213664774        0.37215302391028        0.41306871958401
