26
 energy: -48.810061708715 gnorm: 0.000720625394 xtb: 6.6.1 (8d0f1dd)
N            5.44957317849976        0.06236364843749       -0.00233479995165
C            4.30439990776934        0.05546156227403        0.00124466579283
C            2.88431871182945        0.04036270359112       -0.00034436038995
C            2.28955975453259       -1.24170393788479       -0.00077808591302
C            0.95363385965686       -1.56525130206289       -0.00088969175257
C            0.76611329898840       -2.97908776010936       -0.00064422137813
N            0.70256715871679       -4.12308816207611       -0.00203288042484
C           -0.23857924403984       -0.76640295039329       -0.00051521924927
C           -1.43680201716570       -1.45482972738314       -0.00062601885518
C           -2.66567316509337       -0.79324204903828       -0.00027902119569
C           -2.67607452234397        0.67785050690477        0.00031661755605
N           -3.95190871197103        1.14271117588432        0.00059951244339
C           -4.71682325788921        0.06955254237869        0.00021112254177
C           -3.99264124798331       -1.15859235786482       -0.00032230368389
H           -4.41468498945056       -2.14379258287281       -0.00069537957143
H           -5.78819856426351        0.17128044031831        0.00027631650411
C           -1.50426252718779        1.37740843326776        0.00050455109909
C           -0.25242477170603        0.71311399343356        0.00007324638862
C            0.87190703884462        1.54400619692563        0.00029601363176
C            0.65333462056731        2.95230248675679        0.00134074537076
N            0.57988181484454        4.09588486525024        0.00052683669671
C            2.25634809141181        1.26338717612913        0.00016014152976
H            2.90105977291319        2.13542658056597        0.00063764828630
H           -1.53405616034183        2.45673459313321        0.00095742715446
H           -1.43107957934809       -2.53557130008499       -0.00100897440399
H            2.98473951270962       -2.07370874528056       -0.00087094512599
