27
 energy: -53.330242276463 gnorm: 0.000860729205 xtb: 6.6.1 (8d0f1dd)
N           -4.13977347563686       -3.18269068053417        0.82222147368415
C           -3.58019453161082       -2.20894922084959        0.58424212814655
C           -2.87397515723201       -1.03741251836446        0.29177040789209
C           -3.38412389212634        0.21324299878172        0.04719988727702
C           -2.30997038698429        1.12972301437661       -0.22256943925036
C           -2.50257965511591        2.48366259115724       -0.52138261968302
N           -2.70439119930083        3.58602642156201       -0.76937585491368
C           -1.11296754365268        0.43383495511813       -0.13236429203789
C           -1.43380795953767       -0.95654089045651        0.18026994669422
C           -0.47391431770537       -1.91273332026247        0.22395355330588
C            0.87997472614430       -1.56071476892033       -0.08043356134607
N            1.63697567280082       -2.54462597240947       -0.44766545824559
C            2.90915215695809       -2.61006111243088       -0.78789479627698
C            3.92190364731809       -1.77412857130924       -0.35910746027676
C            3.74232819803099       -0.51954612883937        0.23240242827293
C            2.57952943822228        0.23234743486782        0.28652260946179
C            2.74602028948592        1.48800051158632        0.93361631380481
N            2.94389932659125        2.44550538564021        1.53070803462410
C            1.24538720819774       -0.12706906536778       -0.08265718397861
C            0.24246359582609        0.82622060849212       -0.21126845291478
C            0.55615259627112        2.18032238124588       -0.47555807364558
N            0.79021372488979        3.26257177754016       -0.77134700829315
H            4.62940324993528       -0.03494841458382        0.62182919275963
H            4.93880441733224       -2.12631705740614       -0.46339062837887
H            3.16220953759652       -3.51034845283211       -1.33572734452185
H           -0.70692934339099       -2.95883495608790        0.35382159459532
H           -4.42345810580571        0.48768393148656        0.04999566544582
