24
 energy: -47.791789720574 gnorm: 0.000678616582 xtb: 6.6.1 (8d0f1dd)
N            0.85694472786015        3.45139660702793        1.33116167772853
C            0.72305404391077        2.39104733245314        0.91437312256693
C            0.54203939732140        1.08008632819660        0.43232534917260
C            1.58755297260471        0.18241803922739        0.28455041959415
N            2.89629318240176        0.29638847725451        0.47122345268424
C            3.39837533540930       -0.82254583237344       -0.09936742245857
N            4.70103520238351       -1.06989277431719       -0.11881203335211
H            5.03495291078932       -1.89869407923460       -0.57765200011911
H            5.33083132016346       -0.41469896555763        0.30953416969544
N            2.50893695025487       -1.67450817179448       -0.67656912869208
C            1.33902392738768       -1.11741931162874       -0.43629139848518
N            0.13573893070132       -1.58667376567091       -0.68985158277975
C           -0.87935542870923       -0.81949412781838       -0.33709174833426
N           -2.02483735603334       -1.36781613774222       -0.04293104361382
C           -3.23471121762515       -0.86849996795519        0.13239331974871
N           -4.07929987728823       -1.64946021083853        0.83569800556303
H           -3.75010164875012       -2.54227876102263        1.15920181203069
H           -5.05066579580755       -1.41404471497979        0.92432470257741
C           -3.71492377549724        0.31958525932337       -0.47417307781717
C           -2.86623749028821        1.34489481448596       -0.83082502880143
N           -1.62579179030703        1.51321986574590       -0.42266667142322
C           -0.71031839457552        0.65910561908302       -0.08753391080201
H           -3.26422512184640        2.20096530658715       -1.36400709089597
H           -4.78099601316351        0.44343483774970       -0.60182249188775
