28
 energy: -56.275412711709 gnorm: 0.000535891825 xtb: 6.6.1 (8d0f1dd)
N            3.28202150582566        3.90621658299865        1.08227682157338
C            3.00907891351235        2.83476100447327        0.77182569439739
C            2.67554625195149        1.53184286814221        0.39209683282991
C            1.33974506480359        1.02017582949298        0.27353121009024
N            0.21899196382029        1.62753055144922        0.48376005763863
C           -0.93628974540170        0.94972062230961        0.26696753121733
C           -2.03955142458456        1.72842246789110        0.04834850296988
C           -3.35766705629244        1.28893387197985       -0.32846278416474
N           -3.90409950593182        0.12563937451231       -0.08836621247254
C           -3.26990768424250       -0.95337825390850        0.39885102471777
N           -4.05838522330373       -1.87271864565276        0.97767973844940
H           -5.05478460221708       -1.74843248079123        0.94924544334187
H           -3.66665230328945       -2.77319564237662        1.19337819414926
N           -2.00931489780882       -1.28739570495148        0.23585986979873
C           -0.94571443258789       -0.52129303083842        0.08910488701862
C            0.27994501564346       -1.14695012264964       -0.21545290934305
C            0.29038828226896       -2.53610080007961       -0.46593184123141
N            0.28126397169035       -3.66257859850796       -0.67812406507456
C            1.45388551612045       -0.38865899094309       -0.17039548940847
C            2.80842405464875       -0.66674427679303       -0.30713445678429
C            3.39493314387305       -1.87544745674777       -0.69312872577118
N            3.90574684587542       -2.85260757518185       -1.01549654005522
C            3.53876448294408        0.51733631616704        0.02787555643269
H            4.61188369010294        0.58835536487417        0.00226109547736
N           -4.14344555355458        2.19717470221676       -0.93088945768995
H           -5.07201249942173        1.92555745984241       -1.20386868888428
H           -3.81538764140541        3.12448783398161       -1.13151580216766
H           -1.85896748143872        2.79631725158965        0.03805402314813
