27
 energy: -51.738639503488 gnorm: 0.000696128019 xtb: 6.6.1 (8d0f1dd)
N            5.59763679581363        0.24781860885298       -0.28392188385478
C            4.45363864218827        0.18104964210031       -0.18990647741458
C            3.05509795960197        0.13839928002643       -0.04507002811468
C            2.42671444344487       -1.08804941526408       -0.17290900816590
C            1.07816081002724       -1.40308142970214       -0.01436959929830
C            0.74865899439804       -2.76734363932885       -0.20716148430329
N            0.51450235075770       -3.88009251886936       -0.35726531773732
C           -0.02776572447006       -0.55041371997082        0.24035654021569
N           -1.19467934513433       -1.12738271167563        0.42810044082659
C           -2.31117093076433       -0.48625044140406        0.18968356445717
C           -2.23318475153326        0.90135426879817       -0.38874031115584
N           -1.06243381966816        1.51348624085875       -0.46051236996434
C            0.04275028330239        0.90771271113469       -0.07135508604888
N            1.13031698974117        1.64806778618595       -0.05290889383006
C            2.39010606399831        1.40057217049325        0.16503873510440
N            3.14654207347395        2.46360721322160        0.50981216342390
H            4.15040875566799        2.39901968051867        0.50994947251008
H            2.70456826412455        3.36677312999195        0.52782904475146
C           -3.51715941599739        1.35955017243821       -0.51660414493833
C           -4.38808956183220        0.32277783711740       -0.06486889256391
N           -5.72575921745062        0.41550786694123       -0.04287370414163
H           -6.28210208092112       -0.35034668955944        0.29377734617912
H           -6.18512687407185        1.23162904240497       -0.40628067149064
C           -3.64053824157162       -0.77405067742019        0.41434426194015
H           -4.03716694029082       -1.66510733906136        0.85919271712827
H           -3.82564733594091        2.32558353009649       -0.86464739582620
H            3.07319525770577       -1.92924732462545       -0.40085523658902
