32
 energy: -59.945079349990 gnorm: 0.000402581405 xtb: 6.6.1 (8d0f1dd)
N            5.63444652012157        0.77473689653981       -0.38037470238223
C            4.51192340469340        0.57388310824303       -0.24518939165353
C            3.13268241812426        0.31474317520991       -0.07922569102161
C            2.35573610418016        1.42680448854505        0.26597727001228
C            0.98382302073050        1.55098524762291        0.31218667486460
C            0.56245670949595        2.83223869580270        0.75587069649426
N            0.32099102487088        3.84930778042623        1.22820982395910
C           -0.04164623550914        0.58641113186815        0.06019115035518
C            0.17676328724186       -0.86040885239668        0.21885822407021
C           -0.94760837868899       -1.68187945698256        0.44445479804218
C           -2.22940493348166       -1.21592268512356        0.28142406731291
C           -2.44297977655470        0.17864476277622       -0.14806801211391
C           -3.77871706518712        0.36339164216662       -0.34056376996528
C           -4.43555037270735       -0.88615673387849       -0.02002287045512
N           -5.76380794388295       -1.06089322835691       -0.09146395580703
H           -6.17694269352201       -1.94191070654100        0.15842372061991
H           -6.36203190667077       -0.30161020578683       -0.36483837770961
C           -3.48354503353113       -1.83041856268635        0.35549989649483
H           -3.67503863860075       -2.84631380156587        0.64044035864264
H           -4.27670601845316        1.25987573513126       -0.65689979140726
C           -1.32504425876682        1.04561020903718       -0.21250199775027
C           -1.58616192716257        2.36937647165534       -0.62586530357593
N           -1.88481910857153        3.38385016330129       -1.07295988077182
H           -0.79390453463978       -2.72616086993503        0.67379738883334
C            1.41460486406595       -1.51186620142458        0.09146929914788
C            1.38568126118581       -2.92547527092281        0.20096025988994
N            1.44605890627263       -4.06982657320087        0.28776076887748
C            2.72155139615186       -1.02372472160987       -0.21558235850370
N            3.65376702890231       -1.92672883623367       -0.60339633050582
H            3.44415798139138       -2.91011468418130       -0.61833476327358
H            4.60807829357169       -1.63295451583192       -0.72837163845698
H            2.91670261373480        2.33075430232190        0.47597378753677
