26
 energy: -52.808629453575 gnorm: 0.000753978226 xtb: 6.6.1 (8d0f1dd)
N           -5.19796274259700       -0.79489894403138       -0.34755116402903
C           -4.06715751135905       -0.63433179298004       -0.23654927590541
C           -2.67500000985023       -0.41512919363429       -0.10453143815723
C           -1.90958697282512       -1.56930771801467        0.06806159803786
C           -0.54000471353466       -1.71597081756704        0.12366498344573
C           -0.08723223554760       -3.04908999428038        0.32292054358925
N            0.20851954383989       -4.14246754733314        0.49147162421153
C            0.50461960675153       -0.75581703390572       -0.03093520255842
N            1.69908393317510       -1.29474538152372       -0.13665793604857
C            2.79101146411795       -0.57844496209273       -0.10625479519727
C            2.72804001342619        0.89597353304902        0.11282588646163
N            3.98438442268917        1.35288911247476        0.03494581742701
C            4.71200319985720        0.27296009289116       -0.20467116388486
N            4.04581153093824       -0.88864518062242       -0.36615072387554
H            5.78177018148125        0.31516459051186       -0.29320867904870
C            1.49580542108045        1.48665845987511        0.05790877394237
C            0.32168498402064        0.69839747414019        0.00743536871370
C           -0.91131500879989        1.37538848134200        0.09969528676848
C           -0.82588485984635        2.75922454572360        0.40014245109008
N           -0.82339312449203        3.88153716881651        0.64352077741603
C           -2.25393855935512        0.93556789499946       -0.08232401171226
N           -3.20919486824119        1.88053871920346       -0.19393856116141
H           -2.97867355305509        2.85886574063292       -0.14042804337625
H           -4.17759029280761        1.61305978096058       -0.26295392635346
H            1.42379181772994        2.56298778009523       -0.00344773460329
H           -2.47958672909642       -2.48948607273044        0.14100357990796
