29
 energy: -55.990217133713 gnorm: 0.000694785278 xtb: 6.6.1 (8d0f1dd)
N            3.35125124676548        3.91519103848986        0.93926853651637
C            3.08748057279404        2.83136110193791        0.66190381396230
C            2.73312465669185        1.52378149685217        0.32599664992123
C            3.56190096958294        0.48048103361750       -0.00204912619950
C            2.78083658613672       -0.69148056149127       -0.29124831503475
C            3.33189215472239       -1.92094007599785       -0.65988238977126
N            3.82829820686230       -2.91049268313485       -0.96778878555105
C            1.43759453236509       -0.36796365398734       -0.13972803629105
C            1.36765858347619        1.04035497001446        0.25304694781939
C            0.18739673469775        1.67575136291860        0.44121710701056
C           -1.03176444433335        0.96995210961837        0.17132798460275
N           -2.07287947457763        1.70512328446327       -0.04331699291713
C           -3.33511900339471        1.35556659466164       -0.36747143181792
N           -4.02141308196761        2.36327468120236       -0.95222204284528
H           -3.56955608701067        3.25608921266952       -1.04041011588603
H           -5.00751676688158        2.29083607346388       -1.11906615991429
C           -3.96713991952066        0.16571139427949       -0.04716113388205
C           -3.30169351734942       -1.00770439656954        0.39385683353492
N           -2.02654572170675       -1.29106662042708        0.25551824126263
C           -0.98000123501174       -0.50838312222228        0.03231054012625
C            0.25384150103626       -1.12378429248694       -0.21002493310102
C            0.27766705561720       -2.51405918116750       -0.44488159822577
N            0.26604093487211       -3.64421934199719       -0.64035855491440
N           -4.04074444407071       -2.00708115894362        0.92468306265088
H           -3.57787300286093       -2.88503554731127        1.08867198366264
H           -5.04364440014020       -1.97856956418603        0.90657471652170
H           -5.04393105704007        0.12237771743460       -0.14387777536478
H            0.12750048114887        2.72586503498719        0.68386817659358
H            4.63601812109641        0.51243995541543       -0.04351049976720
