24
 energy: -43.774499819965 gnorm: 0.000715922512 xtb: 6.6.1 (8d0f1dd)
N            1.55584802157742        3.30929552841432       -0.73358612837643
C            1.29823223294585        2.22094861566349       -0.48191259655753
C            0.97622126852008        0.87675415177701       -0.19671589444787
C            1.97263907780010       -0.11772849513865       -0.22097901701503
C            1.64245563994660       -1.49733058012600        0.22904815628182
C            2.88520298224121       -2.17710257937276        0.16924148426420
C            3.79038911139837       -1.24969678741778       -0.27781885618369
N            3.24528608727720       -0.01149136778188       -0.51214362699331
H            4.84221860502310       -1.38953509983753       -0.45365035023582
H            3.06869753092639       -3.20379415655480        0.41581320460478
C            0.36511107474086       -1.84291731237054        0.54280913246433
C           -0.67972112344176       -0.88770758254926        0.38406748236788
C           -1.96022463170461       -1.33790033973916        0.22161291186715
C           -3.12359270213564       -0.56117551322377       -0.12236119803119
N           -3.34779897723438        0.69091621369884        0.18920512923694
C           -2.43521915035992        1.54143256082183        0.64837365596781
N           -1.15450200557013        1.54346090175604        0.48391066879066
C           -0.32321187241973        0.54767558366932        0.18819045489549
H           -2.84851878111314        2.43653692031591        1.10181608145426
N           -4.13400512181301       -1.20991971643333       -0.73424684780266
H           -4.07437140266822       -2.18243690434667       -0.97330463726738
H           -4.95989065590100       -0.68738772273170       -0.96948020387145
H           -2.10908387594495       -2.41288751599511        0.23974157301043
H            0.10770407830947       -2.85226339999748        0.83461406377709
