29
 energy: -55.999381793072 gnorm: 0.000470462790 xtb: 6.6.1 (8d0f1dd)
N           -5.99418907618355       -0.72829044810852       -0.00226586987709
C           -4.85735189022025       -0.56953894895554       -0.00001276191452
C           -3.45344182698666       -0.39506212904298       -0.00031227038181
C           -3.01756539162705        0.91928155950358       -0.00026691590784
C           -1.72673571850983        1.44767587678915        0.00021771952005
C           -1.73835969118073        2.86923989766060        0.00018450080575
N           -1.81808309526012        4.01314494093016       -0.00040210096892
C           -0.46208640701858        0.81677182782239        0.00095513941761
C           -0.26897763802056       -0.64390737141908        0.00123738112019
C           -1.27379220187619       -1.61910383899288        0.00083709417437
C           -2.66422190941467       -1.58050404831642        0.00017905198012
N           -3.31913962230880       -2.76577395634622        0.00004000199002
H           -2.80226267701827       -3.62648820329793        0.00038870208228
H           -4.32401189019843       -2.79974631748213       -0.00038952652942
H           -0.84627724551231       -2.61613889578719        0.00117599229120
N            0.94272819755125       -1.19710566034782        0.00193056096858
C            2.00696243676921       -0.41694116170721        0.00238477288290
C            1.92418528438180        1.05793616717107        0.00213844751576
N            3.13901694402270        1.61616332514421        0.00268402087012
C            4.00871699089440        0.59372826434341        0.00324333160284
N            5.32456004223714        0.79520267174997        0.00383143478944
H            5.67293848139671        1.73857168606316        0.00387600456201
H            5.96005080230192        0.01564974088721        0.00425206394295
C            3.36854699272159       -0.70147765405500        0.00307637667288
C            4.04513541291344       -1.91450883655966        0.00342201071453
N            4.66206715602601       -2.88599832507040        0.00431383099424
C            0.67481399073318        1.63711454918299        0.00144143206160
H            0.57477657776263        2.71229168660093        0.00126839211541
H           -3.80990034197599        1.66152589634017       -0.00061391449519
