26
 energy: -52.034222933104 gnorm: 0.000683385935 xtb: 6.6.1 (8d0f1dd)
N            5.61063920689912        0.06644187320262       -0.41966519790625
C            4.46975477441060        0.09196312899594       -0.28481453147952
C            3.06756824300246        0.14598491781573       -0.13142874634637
C            2.42404360064572       -1.08313707095092       -0.03246238031308
C            1.07521494600708       -1.38076792697942        0.05620064847467
C            0.77624473500245       -2.75243813741915        0.26345154413999
N            0.58784313517453       -3.87007838658316        0.43356884554293
C           -0.06241468209594       -0.53238256497626       -0.06563371576996
N           -1.22600485800713       -1.16457188255766       -0.11346647411871
C           -2.34181012016616       -0.49954059840073       -0.00626342113894
N           -3.59780465383975       -0.84538307537333       -0.19417480767516
C           -4.28018871197035        0.31934397405843       -0.04839997655015
N           -5.60612336289613        0.35869609438922       -0.12900348247973
H           -6.11043109213881       -0.49466491508088       -0.29089587893482
H           -6.07715281320461        1.24275995462430       -0.06008184518147
N           -3.53990303508639        1.44074803375375        0.10584260834161
C           -2.29872692938481        0.99320657629190        0.16549926753302
N           -1.15645823480515        1.61487004663354        0.11392917023008
C           -0.01315091576170        0.92312204259798        0.01468197363837
C            1.13146308098790        1.71776273516526        0.13286527964761
C            2.48996220073642        1.44253908618413        0.00274038256218
N            3.33932511959138        2.49365436224953        0.04546233172435
H            2.98323527292508        3.42871918220191        0.13074100333613
H            4.33108675818051        2.35528181075222       -0.05038570871634
H            0.88856426573811        2.75323566284187        0.34227361455105
H            3.08384025035528       -1.94497594723599       -0.01960095541276
