27
 energy: -52.535970559817 gnorm: 0.000970503457 xtb: 6.6.1 (8d0f1dd)
N            5.31381952378477        0.38240846166750        0.80914449738004
C            4.21109856032345        0.20813693965327        0.54363410432972
C            2.85284829023278        0.03783146414980        0.19562696371375
C            2.13226577111721        1.24218254651277       -0.22842015940779
N            0.85566078380146        1.41038593406508       -0.21485929515322
C           -0.19717186421907        0.59298761666217       -0.06207217339971
C           -1.41324614656096        1.23722234639359        0.13343823341220
C           -1.43171841608061        2.63872826061992        0.28866740445958
N           -1.46817197807907        3.77769817776094        0.42255565209500
C           -2.62648122603526        0.51212603950151        0.13028326340414
C           -2.58035568904671       -0.93051099338243       -0.15816862621410
N           -3.85141720916144       -1.44445009131497       -0.18905458456974
C           -4.64263403314966       -0.43244519238360        0.05192176075240
C           -3.95459551001221        0.81477061735158        0.25571559509497
H           -4.40882460130174        1.76407274768589        0.45926451444028
H           -5.70926850162720       -0.57160179659303        0.08487540429833
C           -1.40036218436914       -1.58137069744670       -0.33301134050068
C           -0.16858223962265       -0.87895057895779       -0.18628141326684
C            0.99164543094684       -1.63189606571916       -0.05155247096409
C            0.88522318817011       -3.04832325056747       -0.11345426561384
N            0.87470337726091       -4.19311143957220       -0.16742934064019
C            2.31878494007884       -1.21345126989190        0.25555018195088
H            2.98990633279681       -2.01606377072668        0.54492618078652
H           -1.38882780506403       -2.64372693670245       -0.52681959969261
N            2.87553470764247        2.29678642046581       -0.61946222521245
H            3.87533143486270        2.30181388515475       -0.51357992428473
H            2.39084593781050        3.15458645761238       -0.82350718249731
