29
 energy: -55.975814377012 gnorm: 0.000588128905 xtb: 6.6.1 (8d0f1dd)
N           -5.53995845651042       -0.60155788150339        0.02974897380012
C           -4.39704436269213       -0.49167737880357        0.02189266710980
C           -2.99010881318694       -0.34434771271167        0.01248834825833
C           -2.27857597370823       -1.54235682190475        0.00864216292858
C           -0.91336287088579       -1.77115154561025       -0.00127679492502
C           -0.53827517386163       -3.14189356730097       -0.00651096444222
N           -0.30146029999818       -4.26319723962911       -0.00782705511607
C            0.17937222623851       -0.86648075301691       -0.00641588362288
N            1.36334945135498       -1.45904072322521       -0.01955336009964
C            2.44795700113297       -0.68996902286053       -0.02938067310658
C            2.32499547328603        0.80282931695192       -0.02523021510590
N            1.13818627246184        1.38371687530666       -0.01307148607176
C            0.05358548657517        0.60214037591252       -0.00450778587719
C           -1.13737466907858        1.35306647975043       -0.00165839613437
C           -0.89054354181113        2.75268189847765       -0.00843020741456
N           -0.78689285897256        3.89599081987224       -0.00911691512376
C           -2.50315575332438        0.98663995783747        0.00634509403651
N           -3.41700032112783        1.98336944194276        0.00819420815312
H           -3.11820021848440        2.94400279464602        0.00507832363610
H           -4.40016701910166        1.77112062119696        0.01477145125527
C            3.59804613761349        1.33068793735443       -0.03072362662917
C            4.49647775909922        0.24069562021004       -0.03987172055649
N            5.83000616002538        0.33745969085673       -0.04747515646551
H            6.27500490980426        1.23892650829686       -0.04795246531429
H            6.40077532272861       -0.49001787412711       -0.05296781078128
C            3.78050409796632       -0.99891415762186       -0.03707082022653
H            4.22182528778550       -1.97593917904857       -0.03915701232858
H            3.86360104284680        2.36909297358895       -0.02830773748161
H           -2.89465583577344       -2.43575366153260        0.01309400294498
