28
 energy: -52.266424919980 gnorm: 0.000885540358 xtb: 6.6.1 (8d0f1dd)
N           -5.74516906342567       -0.52468055638795       -0.21145304390300
C           -4.60549446910756       -0.38790709234952       -0.16056214791262
C           -3.21523333798399       -0.18083386809440       -0.08554127487566
C           -2.77725908005252        1.13341036049794        0.18648322642389
N           -1.55481368005660        1.61900159878889       -0.02657745431841
C           -0.38576894216485        1.06236904387536       -0.14705066195096
C            0.66524588410365        2.01116166085143       -0.38789434730463
C            1.96127059835542        1.64664981392981       -0.24468341213878
C            2.30429841777112        0.26953947668690        0.09427814101486
C            3.68428393956273        0.20999117630395        0.21009260548679
C            4.45579609568519       -0.90482808839460        0.52819378409129
N            5.09992027405116       -1.82016238392206        0.79463246655705
C            4.21410864185150        1.53797895184269       -0.05933611009483
C            3.19741713174762        2.38868292410982       -0.32855580089571
H            3.26807648763385        3.43266227347518       -0.56555561545301
H            5.26416685516206        1.76735291713963       -0.03776810860965
C            1.29580910294475       -0.69852975389743        0.17795221838641
C           -0.02728788891232       -0.35247489263374        0.02070708582766
C           -1.01591303348029       -1.39176510246362       -0.13553478881140
C           -0.51964430643105       -2.71325806521650       -0.27326045775349
N           -0.16562396935769       -3.79865970024386       -0.38278398588378
C           -2.38382934488974       -1.30493395006653       -0.25317772144481
H           -2.90631805838050       -2.23535815729822       -0.44608465757132
H            1.57075316074979       -1.73108981539220        0.33981253411002
H            0.36807280883833        3.02824729873388       -0.59377996469226
N           -3.66477444681110        2.05830207193656        0.60151994726844
H           -4.63991122155843        1.83309635223019        0.69945598989978
H           -3.35442416884489        3.00865891495784        0.70404294404743
