28
 energy: -56.263667933548 gnorm: 0.000772517088 xtb: 6.6.1 (8d0f1dd)
N            5.66020930945869        0.44146701723818       -0.85268022927427
C            4.54220354917916        0.35268603666422       -0.60757388275401
C            3.17418398810752        0.29270163827593       -0.27329272470929
C            2.59010240006366        1.48744027216622        0.30943688486089
N            1.34307914607540        1.81501051186486        0.21128640207363
C            0.22468925195774        1.15623931407880       -0.04478846231552
N           -0.79514731846608        1.90230221039205       -0.39577805637984
C           -2.01657360796885        1.36749023024653       -0.35204808103794
C           -2.27798911159748        0.01012234297846        0.20719856680879
N           -3.58361232638467       -0.22450828660686        0.30547139314187
C           -4.18064148310818        0.88011299164277       -0.19091539178336
N           -5.50740326809756        0.95288490446532       -0.25195091282890
H           -5.96915935226356        1.76916646830801       -0.61203891543664
H           -6.04459122829070        0.16827817480608        0.07778991188528
C           -3.25473007061595        1.89434486718987       -0.60390702618456
H           -3.50562988139909        2.85301336571024       -1.00732248039920
C           -1.19585693995780       -0.81645162073171        0.47449643966049
C           -1.40714934889777       -2.09691794598229        1.02956429547979
N           -1.61300866355860       -3.08614532149491        1.57235463869555
C            0.09629259197132       -0.31812558896164        0.16464903267495
C            1.14648177567455       -1.18198301834650       -0.15288695711734
C            0.85973957682464       -2.56094198396148       -0.34669289696020
N            0.72164377663580       -3.67207077509236       -0.59104450601317
C            2.48614860396603       -0.87437567960928       -0.48517956499766
H            3.05372795457369       -1.69960714725080       -0.90224622823209
N            3.41196012743728        2.36095537713448        0.92105392692098
H            4.41030144689732        2.24798345767491        0.87615689775970
H            3.02429981385834        3.23669245650759        1.22829644166374
