25
 energy: -48.302743694985 gnorm: 0.000891801436 xtb: 6.6.1 (8d0f1dd)
N           -3.80208070620074       -3.02939186654286        1.03759166235194
C           -3.29284580629729       -2.04648206773196        0.72925264082809
C           -2.65803500324577       -0.85927059847496        0.35721984307158
C           -1.28470935142315       -0.68842172097652        0.15194528482957
C           -1.08216968250854        0.72993670446797       -0.23858824801713
C           -2.36597962459384        1.34581463067568       -0.26121028739014
C           -2.62459840084326        2.68370352622180       -0.57354010035780
N           -2.84301446097474        3.78240887816099       -0.82690162963975
C           -3.29774729892983        0.38310845921992        0.11198858119397
H           -4.35799341469267        0.54690344255672        0.19450091878823
N            0.08397536211609        1.24332241374400       -0.48837631097916
C            1.16957208252889        0.45643782799578       -0.37177962063291
C            2.35550094105575        1.10328760425761       -0.12597051599593
C            3.62293493233504        0.49600498995713        0.16203497899189
N            4.04063846285861       -0.67911252799279       -0.25768232029887
C            3.28345883049592       -1.64143649770651       -0.75911083681510
N            2.02163857121504       -1.86974126827108       -0.57033105793641
C            1.04480556428681       -1.02618734354126       -0.27568999699165
C           -0.20250672274473       -1.54459803817898        0.08036884998851
H           -0.30929112253337       -2.61174461715133        0.20609827468362
H            3.83281151058704       -2.43205987563266       -1.25958575795233
N            4.51741848121129        1.22863583756383        0.84671626045155
H            5.42671871693514        0.83569948951629        1.02094231825775
H            4.31739116285432        2.16981418186628        1.13275402863293
H            2.28288026010365        2.17757127589291       -0.00584609846144
