28
 energy: -57.044512367915 gnorm: 0.000850855265 xtb: 6.6.1 (8d0f1dd)
N           -5.38418941926184       -1.64960263548309        0.48254541215832
C           -4.30534152097131       -1.28544427476830        0.33774052388503
C           -2.98063403559008       -0.81988631273116        0.17071634170720
C           -2.00762107865125       -1.82139766809986        0.08134381446798
C           -0.63996160674171       -1.72106722145911       -0.05303455667874
C            0.03876291831354       -2.94196983289780       -0.30672191837331
N            0.54401340748716       -3.95089411915594       -0.50386908853866
C            0.20808020106402       -0.57559046908446        0.03812982711146
N            1.49558254260211       -0.81185274525088       -0.07122810448536
C            2.38246774256026        0.15652609559118       -0.11516186501817
C            1.90927720027632        1.56367980232047        0.04621637340963
N            0.64325767860650        1.79170115649779        0.18361399935926
C           -0.26349949652853        0.81002816228341        0.10510051156126
C           -1.58464122559980        1.25958280865422       -0.07144519509862
C           -1.67324010554862        2.64997133336617       -0.33640066458077
N           -1.79433737750628        3.77053181556502       -0.55097868302338
C           -2.82765289837316        0.57813626350112        0.01041625369749
N           -3.94613965474862        1.32489513599713       -0.06903444002446
H           -4.85203121047263        0.89022707307768       -0.00487776620182
H           -3.88817662789216        2.32477609580942       -0.17109861740738
C            3.05213660707763        2.37987464785153        0.19685848902941
C            4.15331653549937        1.56804473850957        0.11626613507969
C            3.76393539193469        0.19002953523048       -0.01724728735133
C            4.63613164430800       -0.90047983520046       -0.00968054464687
N            5.37656938420852       -1.77829462897435       -0.01244945522109
H            5.17890878224144        1.88455397595674        0.18039681086341
H            3.03598582866237        3.44804999715531        0.28747492379607
H           -2.39850744075556       -2.83350791426137        0.08534871582472
