38
 energy: -64.652459288504 gnorm: 0.000774337154 xtb: 6.6.1 (8d0f1dd)
N           -4.44176349945258       -2.81537648635771        1.20971110273727
C           -3.66782296351456       -2.06202445669018        0.80810817316205
C           -2.71327449370238       -1.14229432637618        0.34356242705001
C           -3.22675636171755       -0.02006754303580       -0.31271113698692
C           -2.56954824529924        1.12956009932709       -0.67745285795133
C           -3.32247997362167        2.06335569042377       -1.40976202700802
N           -3.92356109810071        2.82515281403484       -2.03069741353478
C           -1.25130188301248        1.55209850827508       -0.24295909823944
N           -1.09874469315426        2.91675434699881       -0.24804108563764
H           -1.79665532093152        3.44012786096686       -0.75392069322410
H           -0.16255636037432        3.28847818353096       -0.26991896842012
C           -0.22249901033681        0.71925861685467        0.15785866198634
C           -0.23044877551075       -0.76095846199464        0.00434780540960
C           -1.34909250077535       -1.53245800736290        0.41503753402368
N           -1.13670736756908       -2.78759665443783        0.87796380305964
H           -1.91384373823825       -3.30895131123738        1.24852115630794
H           -0.19636923288886       -3.10234848002812        1.04772310928392
C            0.98081537470543       -1.39127346916955       -0.33197777732318
N            1.05706372052367       -2.74979990374451       -0.59600323531310
H            1.97530695513220       -3.05523570302853       -0.87924823806084
H            0.29096713356569       -3.16459734761998       -1.10275811042728
C            2.17670881548940       -0.66166200128904       -0.30625400845437
C            2.19642651613788        0.64676430929187        0.32216806725706
C            3.55934815355389        1.02596709039788        0.45664406964180
N            4.02406735819947        2.21837659319802        1.02453078678651
H            5.03156352275932        2.29105985341923        0.95866406643821
H            3.58795415924896        3.04527603922309        0.63535032200278
C            4.33668844939349        0.01270241529509       -0.08162783417197
C            3.50632020062293       -1.01787862388337       -0.56036757841807
N            3.95604684404323       -2.20196764155724       -1.16631322527034
H            4.96582976315866       -2.21906687221777       -1.23281005748245
H            3.55103678642430       -2.36088751637759       -2.08192641801754
H            5.41235777138616        0.01161959948563       -0.13512888299844
C            1.01722508908412        1.29478742752238        0.61700899081511
N            1.04767434797076        2.51763222901055        1.26159673518788
H            0.20922595369382        2.75884447442512        1.76926153487062
H            1.89994126842227        2.66445650617902        1.78396229866910
H           -4.28664821001612       -0.05864194035322       -0.54310944074946
