29
 energy: -55.988347560842 gnorm: 0.000989323581 xtb: 6.6.1 (8d0f1dd)
N            3.27995244350661        4.01449153949976       -0.49927514752875
C            3.00677779601071        2.90797640614408       -0.35514760724567
C            2.67794390006789        1.56162247008064       -0.17913338261809
C            1.34955519587913        1.03246851273702       -0.11713074871576
N            0.22226014521257        1.66444859634640       -0.20584804896549
C           -0.93712036979672        0.96345688249093       -0.10723359375166
C           -2.04503326946921        1.76569961531865        0.00553643591123
C           -3.42244724619727        1.44154012364808        0.15522831913734
N           -4.25014772254939        2.48951368694722        0.38525909633730
H           -5.24002324773897        2.35173883365320        0.47468195751210
H           -3.88470184321874        3.42192447499547        0.45064998524542
C           -3.96725806156870        0.17676252394301        0.03986303677514
C           -3.28509408957182       -1.04486175001134       -0.18847932914269
N           -1.99808479983975       -1.30216654360104       -0.11488923744980
C           -0.94278675322922       -0.51011103624925       -0.03935078981237
C            0.29764153550334       -1.17296782986420        0.09998540246557
C            0.29615808461080       -2.58181065441022        0.20094546977436
N            0.27345471824523       -3.72491976252826        0.28685882870848
C            1.47570570446647       -0.42738468588871        0.08539248133562
C            2.83583614067904       -0.72069238281090        0.14109448758407
C            3.42703435710092       -1.97509535970464        0.31460404186865
N            3.93417765104562       -2.99566838015928        0.45999232061317
C            3.55375307493747        0.50155800523734       -0.01641685968359
H            4.62710371549296        0.57507879996517       -0.01222974237091
N           -4.03170452460092       -2.14018712276241       -0.45260780716091
H           -3.54979232040225       -3.02033178691996       -0.51831849737345
H           -5.03410569638650       -2.11992541894445       -0.43107836189417
H           -5.04399509841623        0.10074211047006        0.13053728685357
H           -1.80717659567295        2.82354352447763        0.02166989699162
