29
 energy: -56.779713458448 gnorm: 0.000801024762 xtb: 6.6.1 (8d0f1dd)
N           -5.88617147018309       -0.17595165485060       -0.19637762555758
C           -4.74553365151272       -0.08831539702120       -0.13146352950134
C           -3.33416112973766        0.03001050888672       -0.05613538767255
C           -2.81962382861505        1.33124312171782       -0.19360223746861
C           -1.51262072257840        1.75012537238482       -0.07000494169791
C           -1.40219060377724        3.16652413835270       -0.16316900468296
N           -1.38666745009030        4.30952908417766       -0.24809020861246
C           -0.28123731708569        1.03162247335569        0.07554840850308
C            0.86103329188918        1.79145179837533        0.25176550349003
C            2.13256745783477        1.21994832371877        0.20894787120422
C            2.25783344833370       -0.21277682017767       -0.11727977384125
N            3.53076170084644       -0.57387818000429       -0.23249950451720
C            4.24660612840951        0.54280923825913        0.02289471476688
N            5.57699581268880        0.51010850730572       -0.00115742436754
H            6.12457893979075        1.33164627481045        0.18480680457627
H            6.03089558433822       -0.36223859806924       -0.21498639049255
C            3.42320148253581        1.68250856448648        0.29676771433357
H            3.76828142958679        2.67280134749828        0.51468400645993
C            1.11252371740066       -0.99696851695744       -0.23087335165515
C            1.29483055368670       -2.33336392097652       -0.65645556670024
N            1.51513206353578       -3.35910657048635       -1.11974899046312
C           -0.16839141377400       -0.43596100721486       -0.01766992540159
C           -1.23814615446207       -1.33026377443949        0.18732804837477
C           -0.92458284974793       -2.67017588691915        0.55332990015486
N           -0.81505462049272       -3.72530828635093        0.98824967304806
C           -2.62533262444514       -1.13314024543628        0.18437818626184
H           -3.21666509306701       -2.02599926087361        0.35507756618357
H            0.77632766011094        2.86078362374480        0.38017287806010
H           -3.55549184991855        2.10930630780315       -0.36399491068638
