23
 energy: -44.848161864776 gnorm: 0.000673153801 xtb: 6.6.1 (8d0f1dd)
N           -3.12678205814676       -3.45673904598214       -0.72599627407660
C           -2.76832194147999       -2.38875608872278       -0.50277863817023
C           -2.30290067364324       -1.09929064998427       -0.22649086446650
C           -0.91957947988483       -0.72688948823946       -0.15615375442109
C           -0.88756103377607        0.72729448043279        0.11632491429965
N            0.24727369286799        1.40728447928839        0.16748495015286
C            1.38619899896175        0.76471937507236        0.10067837573818
C            2.52338765819939        1.47699256320470       -0.34223703102016
C            3.80362150393022        0.98121663879683       -0.52357962822807
N            4.36416787709275       -0.07072884407622        0.05083607072514
C            3.73681715261321       -1.02834898257568        0.67487686069612
N            2.49964463095670       -1.42377742566885        0.45661792791560
C            1.45240997000818       -0.72809448048089        0.13705283625724
C            0.24263527370622       -1.43220535334420       -0.13691732094750
H            0.27535769729957       -2.51099418811305       -0.18609973730477
H            4.33885012325043       -1.68619216790466        1.29072768924698
H            4.49377714776793        1.56273414150961       -1.12395418128597
H            2.30819124955428        2.47201873807712       -0.71154234720046
C           -2.20580743470758        1.15506315605222        0.24760601166094
C           -2.64356919205007        2.44897706299169        0.54709444096228
N           -3.01945741715622        3.50631591759122        0.78974321643542
C           -3.05781183106023        0.03179026263904        0.01765984507887
H           -4.13231510770242        0.07466196933738        0.03997601005018
