29
 energy: -56.793570841036 gnorm: 0.000410014123 xtb: 6.6.1 (8d0f1dd)
N           -6.14093940742798       -0.67702523568193       -0.00103396770880
C           -5.00787239836852       -0.50739548928905        0.00000879479742
C           -3.60465145040797       -0.29994254741358       -0.00036941646916
C           -2.81257165173095       -1.46006101158012       -0.00080255106619
C           -1.43735422591163       -1.56721735614066       -0.00061146210301
C           -1.02869690625302       -2.93231356106248       -0.00172723648826
N           -0.78539151402240       -4.05227494563141       -0.00121236989704
C           -0.39308521869827       -0.58710996712403        0.00005866038962
C            0.90309008108157       -1.07845966205859        0.00032094936093
C            2.00235803863136       -0.22673367227597        0.00085176240255
C            1.78959657014000        1.22273825578941        0.00105654759202
N            2.95168954888227        1.89274344490264        0.00148397834733
C            3.91103599876089        0.96487636603906        0.00162572934215
N            5.20426013285252        1.27579931908277        0.00206175239312
H            5.47152076854428        2.24560352101239        0.00227039389084
H            5.90575501481910        0.55472208391650        0.00215014111516
C            3.38064713324963       -0.38988714671334        0.00133450514575
C            4.15941195099732       -1.54049799344930        0.00176890759954
N            4.85066406966698       -2.46018244910924        0.00102948761733
C            0.50658354394144        1.72159982247009        0.00088055133439
C           -0.60917198627275        0.87188769763871        0.00041150813144
C           -1.86822231412964        1.51353584078097        0.00047475795452
C           -1.87105460657325        2.93742824978587        0.00220313005191
N           -1.96765230789349        4.07969901828175        0.00014971468883
C           -3.17570626512067        1.01634151162184        0.00025373210523
H           -3.95670260238532        1.76923032149472        0.00063032790104
H            0.36817209879042        2.79172197374327        0.00111853605815
H            1.07334535712309       -2.14556986402590        0.00010052989375
H           -3.36028359528508       -2.39623226520442       -0.00125407578055
