31
 energy: -60.234647995116 gnorm: 0.000806325288 xtb: 6.6.1 (8d0f1dd)
N            6.06053201459612        0.86450986078404        0.00288619184601
C            4.93047401274277        0.66298056085429       -0.00175025447886
C            3.54265293055376        0.38938603794232        0.00045529561437
C            2.71359045734419        1.50842695636465        0.00019257913377
C            1.33136106273042        1.58722405803637        0.00027411873617
C            0.81821089071000        2.91439904931687       -0.00087266319908
N            0.48477234751091        4.01033445593217        0.00047179556764
C            0.33095025323276        0.57950728284674        0.00052102634100
N           -0.89346915816441        1.07835419675986        0.00028256161950
C           -1.93728970105226        0.26859040027632        0.00038905466784
C           -1.81005533739594       -1.20660894835228        0.00065974114407
C           -3.08420725228777       -1.75586226196714        0.00062041328086
C           -4.00264494411625       -0.69843315815684        0.00037286719134
N           -5.33591098142519       -0.78544357832422        0.00029155691254
H           -5.89194224176079        0.05383640077811        0.00008422572496
H           -5.79211894051013       -1.68111504789459        0.00045835844418
C           -3.29153866051252        0.56405571633179        0.00010801488531
C           -3.93590578679689        1.79846128539497       -0.00049613068819
N           -4.55386690342450        2.76861499728604        0.00030562710637
H           -3.32845013132568       -2.80099629700901        0.00078543384762
C           -0.52386813598126       -1.73407144006487        0.00074401379261
C           -0.36554371851581       -3.13467649038215       -0.00033237513271
N           -0.26386884373732       -4.27909421682639        0.00242820762134
C            0.60635074045137       -0.86525277760078        0.00081440840983
C            1.85477858201511       -1.46957171046758        0.00091836359068
C            3.16821987568679       -0.97678253119589        0.00079023557813
N            4.15846198954664       -1.89971388325905        0.00090685083905
H            5.12316620752824       -1.61540816185558        0.00081321310681
H            3.94094824796045       -2.88025796972711        0.00111306172978
H            1.81329653081858       -2.55588685960608        0.00107520798078
H            3.23032346987862        2.46244572208507       -0.00029179591374
