26
 energy: -52.817693223039 gnorm: 0.000654179370 xtb: 6.6.1 (8d0f1dd)
N            3.56812965236515        3.46597996355858        1.00046395842608
C            3.09850713182432        2.45577118485559        0.72285599567992
C            2.56013741829646        1.20701647437306        0.39705838709534
C            3.32040643760729       -0.00553982062754        0.29551959396628
C            2.50100583647537       -1.05631314754932       -0.05317899058925
C            2.87167489004248       -2.39297525532978       -0.23650851660914
N            3.17342131487163       -3.49104759351406       -0.38242262041307
C            1.16342873794264       -0.53916830763172       -0.16721438122711
C            1.23349657831591        0.90998826016765        0.11526407696822
N            0.19459053586302        1.72710099199621       -0.02817641943830
C           -0.97572654370977        1.22583787224001       -0.32951680111834
N           -1.91179280709441        2.08242524173339       -0.73544970862998
C           -3.18556764408866        1.93477938601739       -0.83656494308587
N           -3.98606406660586        1.09104271481534       -0.18763959669341
C           -3.63705433830789       -0.08277543000938        0.26807480566851
N           -4.52192248348245       -0.71999110424024        1.04763682581479
H           -5.37977080769778       -0.24905869656444        1.28158525303710
H           -4.36633977789305       -1.65861718219337        1.37008199441257
C           -2.42380457882073       -0.80357455604802       -0.06652449382645
C           -1.21744691799879       -0.24650729184118       -0.35666733037056
C           -0.04605786182796       -1.10001796703779       -0.45270646751955
C           -0.21998973582524       -2.46940586262254       -0.75366663552548
N           -0.42343579547242       -3.57144796529564       -0.99578412108341
H           -2.46925985279493       -1.88260385840099        0.04526640864467
H           -3.70703303379071        2.68842057330697       -1.41746469606555
H            4.38056002690651       -0.06765887355831        0.46551533338236
