31
 energy: -65.027848693198 gnorm: 0.000490034004 xtb: 6.6.1 (8d0f1dd)
N            6.28872456767275        0.78450846565356       -0.65434777978497
C            5.17055616038309        0.60030235768439       -0.47349999387575
C            3.79719343957211        0.41340303539614       -0.21149273039911
C            3.11085341715094        1.48682493303494        0.46656124144627
N            1.83717198075883        1.72609689508032        0.33735802443963
C            0.78939544604952        1.00738695937038        0.02049182046192
N           -0.30401820480466        1.70733928944424       -0.25184665174068
C           -1.46864522457669        1.09835626512117       -0.22156237657854
C           -2.74544754074016        1.63125978825570       -0.41819124216016
C           -3.09738977887227        2.92078966394996       -0.82036400589785
N           -3.45753375123072        3.96115764675693       -1.14894578092813
C           -3.69083802066929        0.61109773607626       -0.10351932828114
N           -5.01206918021557        0.73579157451120       -0.15623269591648
H           -5.42833478722610        1.60733827574036       -0.44387441630170
H           -5.60480885721067       -0.04116326845469        0.09107510678365
C           -2.99229704292327       -0.58121876451514        0.28667695612590
C           -3.64700642948093       -1.75519382501378        0.66290515958797
N           -4.26390818419227       -2.67658426866157        0.96473953234831
C           -1.62932232091069       -0.31595734132354        0.19391670704717
C           -0.47789682965863       -1.09505926575322        0.31178741938633
C           -0.58765064198634       -2.45196874011538        0.69150971702520
N           -0.71602430003598       -3.51723639540959        1.09540934622428
C            0.76847096585701       -0.48028199884667        0.06248684194320
C            1.89368789718539       -1.21958692926390       -0.33596695308340
C            1.70830805918882       -2.57768781522284       -0.71320178809032
N            1.64181160299679       -3.65318213901509       -1.10320920755409
C            3.20573631935095       -0.77521512183322       -0.58226737208031
H            3.85304049556641       -1.50006149649005       -1.06413415214508
N            3.82556060408708        2.36350870202961        1.18849541275907
H            3.35182567853467        3.16609992693605        1.56821986381615
H            4.83088107128033        2.32523477877856        1.20328346452358
