30
 energy: -55.704150025694 gnorm: 0.000827908387 xtb: 6.6.1 (8d0f1dd)
N           -5.78114077501628       -0.13643736703839       -0.30356798651254
C           -4.63912127582915       -0.18886240442916       -0.19176436930866
C           -3.23590208791155       -0.28126295454250       -0.06134464443357
C           -2.67751165486222       -1.57672747616943       -0.09599834221957
C           -1.32146517791876       -1.87704998623877        0.09947832331225
C           -0.16868445260712       -1.10851107437843        0.16754357515679
N            0.92506485788075       -1.87770753823376        0.31895867001201
C            2.11603574436864       -1.33952304212669        0.22840877818168
C            2.32446633863043        0.10180583723281       -0.08407716250361
C            3.66510728661099        0.31444950228373       -0.20126108398160
C            4.32140461663729       -0.94280982038322        0.05511966714166
N            5.65256768369246       -1.10049453171129        0.03536933654042
H            6.06428712773226       -1.99509109048796        0.23430244016835
H            6.25377903883585       -0.31928468153113       -0.15902327673090
C            3.37122180360540       -1.93489717842535        0.31483986230816
H            3.56984711934071       -2.96505426642491        0.53246503714461
H            4.16421607382681        1.23716063330137       -0.42954467448874
C            1.17810249643203        0.92111891254300       -0.14962727488902
C            1.40125631544522        2.27160316331526       -0.49459883115475
N            1.71254184751382        3.30911999245271       -0.87591954163917
C           -0.08408607990929        0.35780124159986        0.05047593330419
C           -1.21577315733738        1.20993184616263        0.20483355095098
C           -0.97497638450677        2.57153880854708        0.53132478969193
N           -0.90058509590941        3.65573789732219        0.89960698843521
C           -2.56948948888782        0.92896706415883        0.15015499397215
H           -3.22105156727630        1.78909433652224        0.26529565083086
H           -1.09783487906182       -2.93661404363170        0.16147965858373
N           -3.51396743131450       -2.62631496696849       -0.28271444650049
H           -3.15730302587934       -3.56441728678393       -0.27409435743205
H           -4.50252213763203       -2.47883927390704       -0.39262961154715
