25
 energy: -43.505184257922 gnorm: 0.000684043446 xtb: 6.6.1 (8d0f1dd)
N           -0.30639394257021       -3.51892241824147       -0.01181914900335
C           -0.24450371601031       -2.37408037025217       -0.01143895242707
C           -0.20312564926332       -0.96206870660702       -0.01008949607141
C           -1.38109150947842       -0.23090616669703       -0.01475555944401
C           -1.32506653203465        1.24451466268458       -0.01380160435231
C           -2.64087063873933        1.65121503436332       -0.01958403918466
C           -3.40461808771898        0.44679765777797       -0.02363076105599
N           -4.73905214131830        0.34859667495201       -0.02886735525733
H           -5.32236414211918        1.16498965345325       -0.03542531611028
H           -5.14835940659138       -0.56908640075731       -0.03383758640232
N           -2.64169398782457       -0.66456152731336       -0.02065813595209
H           -3.03590274864836        2.64758084377211       -0.02089334306987
C           -0.08790105429505        1.88360203283358       -0.00801482586983
C            1.10033156829972        1.17186995303285       -0.00322686991756
C            2.29861689637597        1.92012819031123        0.00240365457231
C            3.61319455342092        1.51920894327577        0.00782662281393
C            4.11186730129172        0.21390264271658        0.00913164781283
C            3.37236798311970       -0.95615006748876        0.00517388337063
N            2.07030009638270       -1.15761018543287       -0.00051301032231
C            1.06102707827813       -0.31441236127457       -0.00427158925240
H            3.92750820676370       -1.89027190578496        0.00691618269337
H            5.18839716769967        0.10410559824030        0.01368420601295
H            4.35285258799426        2.31030205190523        0.01150831376923
H            2.14209319339594        2.99393818340147        0.00238675367274
H           -0.05514472311039        2.96535091552926       -0.00729092182514
