29
 energy: -61.558713751862 gnorm: 0.000957339450 xtb: 6.6.1 (8d0f1dd)
N            5.74221282499157        0.50280414613575       -0.35259463953591
C            4.60689783398912        0.39262936752714       -0.23693060704117
C            3.19999037942269        0.26794484280744       -0.10680003131454
C            2.73865330820239       -1.01562603776434        0.08232259484234
C            1.42949265567902       -1.51351229898519        0.17734404082999
C            1.41819664560511       -2.87080851217425        0.60461496142208
N            1.51953390348505       -3.92270553035837        1.04766343828338
C            0.20100638081563       -0.86501233792309       -0.02770533706239
C            0.03279531839232        0.58890827106666        0.01249745041192
N           -1.16692912068549        1.13695075823695        0.05744147636545
C           -2.26110034489058        0.41267430055209        0.10048367234125
C           -2.21799222569758       -1.06144668004594        0.02599419732330
N           -3.46006347301720       -1.55536355036019       -0.03414099399561
C           -4.28632463045972       -0.52492916336426       -0.01611416389280
C           -3.61749944081298        0.73192101957655       -0.00092878946909
C           -4.21219519201999        1.99576777047150       -0.01059959555887
N           -4.72299981927098        3.02342439835476       -0.02508750926063
H           -5.35061158368972       -0.67599188290540       -0.00939887041361
C           -0.98124252760895       -1.65729625405168       -0.13153771871420
C           -0.93880050539444       -3.01688337412106       -0.52579583640714
N           -0.97260188492634       -4.08566337281423       -0.93624298775914
C            1.06401460460883        1.57251278846366        0.02512402879719
C            0.54552045663205        2.89144794560500        0.13349557293391
N            0.21389449402794        3.98576172699386        0.22444471918546
C            2.45842183195968        1.49389423599781       -0.10087798158903
N            3.16278577020938        2.63755909407950       -0.19113152297200
H            4.16676136026922        2.61821361118089       -0.26287083334409
H            2.69076351397006        3.52718940888721       -0.16938860893336
H            3.51009741571546       -1.77418699576695        0.17101660522756
