29
 energy: -56.780527006752 gnorm: 0.000663259772 xtb: 6.6.1 (8d0f1dd)
N           -2.95890436039626       -4.18340437903280        0.00052128397300
C           -2.84852872086772       -3.03991255648196       -0.00099378442800
C           -2.67729705350425       -1.65315519238216       -0.00034762994971
C           -1.39992589795404       -0.98566590964513       -0.00009834540242
C           -1.67022635718542        0.45257007101196       -0.00012437916906
N           -0.69177135647629        1.34619432615095       -0.00006793731261
C            0.56412189579368        0.95074570502560        0.00000301246036
C            1.47596396332135        2.05203049361050        0.00013487207510
C            0.84443810460016        3.32559333436492        0.00021606437757
N            0.41926114306747        4.38936426324252        0.00027293739175
C            2.85590878836545        2.08767167717185        0.00021665938466
C            3.76322453246626        1.03809775759142        0.00016009585702
C            3.53599475424656       -0.33534098917744        0.00003516591200
N            4.62801397074662       -1.13541733652899       -0.00008106547341
H            4.54692584694755       -2.13770002448036       -0.00008508061895
H            5.54620493885678       -0.72861669829981        0.00003519981270
C            2.25181605228155       -0.98068534429605        0.00001444189449
C            2.35910716800827       -2.39850395681641       -0.00064736632408
N            2.52993058560602       -3.53367453804975        0.00078347641970
C            0.95609364717472       -0.46402529602157       -0.00001151909718
C           -0.11310963788469       -1.41672074653931       -0.00008234514243
H            0.11275633406016       -2.47432125351862       -0.00012296845308
H            4.80763989055400        1.32506276553616        0.00019489286477
H            3.29071413824203        3.07986146859297        0.00031949894560
C           -3.05274453128023        0.62179232720018       -0.00030120381809
C           -3.76395263224056        1.82413031678009       -0.00055098020007
N           -4.37728114533767        2.79530952536446       -0.00050859910295
C           -3.65203540595848       -0.68015808082802       -0.00032334331908
H           -4.71340072275298       -0.85386865884521       -0.00053245785752
