24
 energy: -44.577638712815 gnorm: 0.000538942108 xtb: 6.6.1 (8d0f1dd)
N           -3.07207776037465       -3.56208176798072        0.00146144466203
C           -2.69219150434351       -2.47854676794988        0.00172128372161
C           -2.23134096938032       -1.15807587590882        0.00055001238246
C           -0.88624565877780       -0.74351990276385        0.00041160404562
C           -0.88637631272888        0.74334374490749       -0.00046780820646
N            0.23193648954228        1.42541011134011       -0.00061583490079
C            1.38437412320414        0.73273278740304       -0.00005664461103
C            2.51550531700685        1.55777433419847       -0.00033930609805
C            3.86370432257886        1.25109364611607        0.00005824437545
C            4.46765697676948        0.00039161543821        0.00088267421690
C            3.86392649906007       -1.25041863968108        0.00152208513735
C            2.51578289864324       -1.55734044571428        0.00148323920274
C            1.38450369849062       -0.73250190857914        0.00080008146271
N            0.23218989169619       -1.42538624049356        0.00102993562400
H            2.25393773937045       -2.60939876262540        0.00209399781331
H            4.53584896727565       -2.09904977731468        0.00213102024066
H            5.55071505509251        0.00048802276529        0.00105061414451
H            4.53547552290627        2.09984478059900       -0.00032986057217
H            2.25347279114679        2.60978619388580       -0.00098723289263
C           -2.23154112937528        1.15766591698254       -0.00065741327957
C           -2.69261031013839        2.47807245854094       -0.00040049626803
N           -3.07280107490455        3.56160726046456       -0.00371817180920
C           -3.02771878571511       -0.00027067275481       -0.00029090962465
H           -4.10400513284493       -0.00036249587527       -0.00022092836680
