26
 energy: -47.217036986271 gnorm: 0.000890741830 xtb: 6.6.1 (8d0f1dd)
N           -1.31593584494965       -3.43664372597039        0.67282540846818
C           -1.23372501298808       -2.30789222548410        0.48717546525815
C           -1.10816601999822       -0.91857198593796        0.27608685615159
C           -2.20524120228409       -0.07231750866269        0.23038404171974
N           -3.50540845692591       -0.30869187750044        0.34545987280619
C           -4.11584714806798        0.85067787906353        0.02143562245405
C           -3.24894949561604        1.87253083343003       -0.35317843727319
C           -1.96908580379526        1.34324924411441       -0.19341082521901
N           -0.77157890082861        1.85028477818189       -0.37059872765459
C            0.30117053854791        1.07758139177273       -0.18181843175316
C            1.49892446055729        1.76335736421781       -0.03977142650303
C            2.81820883929801        1.30356386467109        0.14100334271397
N            3.74924870415618        2.25174517744331        0.43826327355338
H            3.50109016980809        3.22333611093699        0.39252137968252
H            4.72502554592857        2.01536780560743        0.43633783763041
C            3.25107058271497       -0.01154671221006        0.00717757466558
C            2.45525027832387       -1.14769452995834       -0.21608872437436
N            1.15100150599302       -1.26906429084799       -0.04944933651843
C            0.18326361558264       -0.38808632462585        0.00526837241795
N            3.06409171278803       -2.31310820056111       -0.54897714906239
H            4.06130568955835       -2.41117614313698       -0.49135934619646
H            2.49182741778363       -3.14046008746599       -0.54579664110201
H            4.31662040595793       -0.18491271682872        0.09457908365268
H            1.36990323187634        2.83955383825205       -0.01039380587051
H           -3.50997731426184        2.86826370295125       -0.64673308874757
H           -5.19028114885901        0.90264470224754        0.06669808220060
