25
 energy: -47.507358369884 gnorm: 0.000906426161 xtb: 6.6.1 (8d0f1dd)
N           -0.92890595284911       -3.48182789982772       -0.87577703970936
C           -0.77713429753061       -2.38667641726511       -0.57069953591633
C           -0.58578696837663       -1.03142091972426       -0.22894572585543
C           -1.64363439777858       -0.13215122490618       -0.17694561736402
N           -2.93915181382982       -0.32053589304608       -0.38202253110507
C           -3.53495400126659        0.84249538466100       -0.01203864213649
N           -4.86135013369986        0.96138041662235       -0.10382633348531
H           -5.33057640681260        1.79624189273801        0.19686670252614
H           -5.38819607329304        0.17834050691304       -0.44995037604990
C           -2.62371095001252        1.82357260843976        0.45916004073726
C           -1.37991743259107        1.24619036126791        0.33962628753915
N           -0.15740054047808        1.71164340209961        0.54850286533835
C            0.86490376376770        0.88872461394655        0.37771395139393
C            2.11062824713344        1.46445602937684        0.13511204468217
C            3.34108406606407        0.81974000754698       -0.10829633592997
N            3.70656795749980       -0.39740362896229        0.29302790356163
C            2.88194245385132       -1.32614966946610        0.71039406389917
N            1.60897587050032       -1.47448000229775        0.45971049300489
C            0.68788009661310       -0.58080104259555        0.19685667133091
H            3.35168080608529       -2.17002069442177        1.20513544155425
N            4.32224378780756        1.52508070142494       -0.71151311039619
H            5.22655897881663        1.09725130683367       -0.80348092067431
H            4.20047846222197        2.49362999431667       -0.94319341517527
H            2.08550543669707        2.53876344537013       -0.00409198803719
H           -2.87081342323941        2.80581000185551        0.80463000146667
