25
 energy: -48.291066401616 gnorm: 0.000807393021 xtb: 6.6.1 (8d0f1dd)
N           -5.27556456387239       -0.01117581373660        0.39989732726761
C           -4.13419972661284        0.02961880515828        0.27511503654012
C           -2.73268122985615        0.10540294913470        0.13199038978286
C           -2.06970415494433       -1.11544801722184        0.04126426847525
C           -0.71821142005467       -1.39167137285496       -0.05110079551005
C           -0.38964195675806       -2.75178475787588       -0.27749501404598
N           -0.15665335668631       -3.86067032543405       -0.45151552447432
C            0.40640263061332       -0.52109107532653        0.06500322657741
N            1.58623941575968       -1.10312339777040        0.09512201275809
C            2.70169735765874       -0.44450032425261       -0.03340030290341
C            2.63219552949572        1.05942964481904       -0.12281346568179
N            3.85069274376869        1.55120457689361       -0.05413057686348
C            4.69317485548817        0.51214297953892        0.06436224081271
C            4.05001158709081       -0.71923495720556        0.17118900970812
H            4.49468547698594       -1.68531610557739        0.29964900011569
H            5.75202984992779        0.69609383122834        0.09470125033978
N            1.47274623588178        1.63245804896554       -0.01055469002702
C            0.33513539599023        0.94003782553028        0.02407875925097
C           -0.82199684304107        1.71539478424512       -0.11356936966529
C           -2.17662567830325        1.41144003438908       -0.01053349482074
N           -3.04627358725278        2.44439715028475       -0.08212112516260
H           -4.03603207660636        2.28714243217182        0.00503268536384
H           -2.70832557188283        3.38642342662316       -0.16424422108279
H           -0.59802321540037        2.75418742509794       -0.32681788296348
H           -2.71645352429141       -1.98698519792680        0.02718000990825
