31
 energy: -60.235098938703 gnorm: 0.000786169785 xtb: 6.6.1 (8d0f1dd)
N           -5.86278471526814       -0.03411437181013       -0.44441227955531
C           -4.72526965187494       -0.05712778728560       -0.29133988547339
C           -3.32479134247106       -0.10907764962153       -0.11442282580763
C           -2.71567571158889       -1.37437457861074       -0.19861812168869
C           -1.35113427760954       -1.64226065271306        0.04842490350544
C           -0.23159683259020       -0.84222753513829        0.15473818302186
C            1.01530291138041       -1.54307426126731        0.30756292692327
C            1.02782121239119       -2.93327232801330        0.54245289455446
N            1.02566423296764       -4.06403602273337        0.74094441640161
C            2.21712186088071       -0.88393854743439        0.16056742700002
C            2.22890747123067        0.55344638417445       -0.15695027560899
C            3.54410459570236        0.88293209440385       -0.31968219900560
C            4.26590962198559       -0.34454640868710       -0.07745086156867
N            3.46413602990348       -1.37649738047672        0.20331097891190
N            5.59081348348965       -0.48458218801179       -0.11756728519226
H            5.98572884573412       -1.38799551270108        0.08038294708911
H            6.18814911343127        0.29589702140029       -0.32367799285918
H            3.97501771273184        1.83363840320574       -0.56073782316981
C            1.00646077791845        1.26519132871697       -0.17574901582953
C            1.10031887544542        2.63035396629725       -0.52173346705670
N            1.28821408801898        3.69293421766283       -0.91378429271282
C           -0.20140302569588        0.61697307118003        0.05976341864352
C           -1.36794936940285        1.41973465303953        0.29460654563686
C           -1.14914492016573        2.74491220124690        0.75707325460615
N           -1.07548014137608        3.78108992086658        1.24358879395477
C           -2.70614887503321        1.10610855812953        0.20879667997906
H           -3.38874881608647        1.92914387993909        0.39237475852160
H           -1.13885162373205       -2.70589329950581        0.09738828088518
N           -3.49270447554170       -2.44307596566805       -0.48198721840664
H           -4.48226032875070       -2.32920131696586       -0.62378266935453
H           -3.10413139190984       -3.36949465991290       -0.48899362694964
