27
 energy: -51.760754220197 gnorm: 0.000583200314 xtb: 6.6.1 (8d0f1dd)
N           -5.60085394608757       -0.27384301687814        0.54707057857088
C           -4.46774694748035       -0.19157217157246        0.37648444023785
C           -3.07807683823816       -0.13654633454777        0.15327721106179
C           -2.42070116026076       -1.37611709211403       -0.15012091631533
N           -1.14426114892951       -1.63020894724867       -0.02842203296257
C           -0.05915235138091       -0.88535810188157        0.07847299292090
C            1.10950953843252       -1.60474864055323        0.34300846561301
C            2.33590086443744       -0.98805456049968        0.23311236081837
N            3.57885494301769       -1.45038309438822        0.36496195693193
C            4.34662560148634       -0.38163503901406        0.06112900742485
N            5.67433118413866       -0.43724269900149        0.07982784722680
H            6.20033830043243        0.38793843409638       -0.14669168488002
H            6.12712144226147       -1.29895268228317        0.32743181730467
N            3.69423169648565        0.76805039098701       -0.27186208410837
C            2.41601151414531        0.43534172525119       -0.17434598565286
C            1.25893847793456        1.18190869010812       -0.33546605770346
C            0.01981782531299        0.58721159139499       -0.14116229217890
C           -1.11857987987333        1.42151886421512       -0.01917722049475
C           -0.89446988487972        2.82335000727364       -0.03758113893914
N           -0.78024399412699        3.96451888385539       -0.05504550225985
C           -2.45798710864045        1.09949222026678        0.21109296462134
H           -3.10990906341268        1.94287273962749        0.41390678302254
H            1.33213204131510        2.23597724067973       -0.55795923976311
H            1.03018570907254       -2.65879129312285        0.55456023089787
N           -3.18383348475614       -2.42683723383037       -0.52103619681226
H           -4.18743655896900       -2.37118761470148       -0.50116689313885
H           -2.73445116253643       -3.31825424451889       -0.63765478354323
