31
 energy: -55.428336040297 gnorm: 0.000801327635 xtb: 6.6.1 (8d0f1dd)
N            5.79141721745643        0.01257710298436        0.40260075926049
C            4.65488971670886        0.10558853555716        0.26268095543953
C            3.26051323636097        0.24200437095996        0.09333016808417
C            2.73821612048102        1.54750943001376        0.12442961355663
C            1.39761255330799        1.89731065365632       -0.12622914445501
C            0.22254269743946        1.17096077551165       -0.20729512872414
C           -0.95632244749067        1.93799495759257       -0.38286341577996
C           -2.20405063386747        1.39239571904769       -0.24901482362970
C           -2.33131142162141       -0.03346096252300        0.09891690831297
C           -3.65564972779371       -0.31310675324753        0.25767510761182
C           -4.38918673551272        0.90404036121815       -0.00404407670302
N           -5.73143762289646        0.98808498051994        0.07188125303279
H           -6.27730444776360        0.15854931665779        0.22155307636541
H           -6.20159702661949        1.83318844852882       -0.19916380884340
C           -3.50049870423460        1.92671352493689       -0.30753065483853
H           -3.75642518606564        2.94215058931949       -0.54059380590858
H           -4.09721338641710       -1.25637938794190        0.51727060007204
C           -1.16183717737370       -0.83206870869364        0.16051203918922
C           -1.36288454352822       -2.17548677435667        0.54189675033312
N           -1.63581169777336       -3.21036275450211        0.95846515574486
C            0.09609428955212       -0.28761367153948       -0.06669456002493
C            1.20529458853813       -1.17428194999935       -0.24820751354144
C            0.91199329441114       -2.50547886818603       -0.64602652225088
N            0.79436512424210       -3.55873058713648       -1.08602284312392
C            2.56278918493449       -0.94516483848816       -0.16791808764430
H            3.19054541300632       -1.81925306195105       -0.30526645807585
H           -0.85349084964941        2.99862004704025       -0.56690660961756
H            1.25484480304360        2.97107217136293       -0.20534254250110
N            3.59612552592425        2.57124706095691        0.37286792472091
H            3.28660841473442        3.52358769155769        0.30366653758840
H            4.57983719566612        2.39024305024671        0.47609374914865
