28
 energy: -57.049650490580 gnorm: 0.000568898102 xtb: 6.6.1 (8d0f1dd)
N            5.56166615799917       -0.06266644914066        0.16156896421647
C            4.41518565862433       -0.02055276147548        0.12968889165213
C            3.00659582962624       -0.00382259302105        0.06020198286823
C            2.36552176066141       -1.20779768946302       -0.33384829138249
N            1.10587401917714       -1.50426541765877       -0.04831962013093
C            0.03577302748303       -0.80375499375235        0.14623369427186
C           -1.13478010283113       -1.58703428233565        0.46873276876835
C           -0.94501081492289       -2.94251823324614        0.81750489490783
N           -0.75730177492632       -4.03445338814223        1.10852682346985
C           -2.37361054868071       -1.03755524937667        0.27857190975930
C           -2.51381463637005        0.35098300217580       -0.20140323523604
C           -3.85971159106772        0.53142837192743       -0.38209592865639
C           -4.46039170784283       -0.71164551929373        0.00598906477874
N           -3.59838139962172       -1.62308786112970        0.38901598750811
H           -5.51376751842532       -0.92944971442763        0.00557931128006
H           -4.37368799251368        1.40708909284083       -0.72439046177888
C           -1.36743437467717        1.17476860803921       -0.30244566784823
C           -1.56663508382561        2.50846255304889       -0.72132402868007
N           -1.79836823181927        3.54620516130360       -1.15135720527552
C           -0.10910264901038        0.65085521281865       -0.03581665496355
C            1.00335999522754        1.49692270193476        0.27111180505916
C            0.70668011043143        2.82942829552436        0.66418066357361
N            0.54480747614802        3.89318169591820        1.05940090915757
C            2.34936317879616        1.18665580977156        0.38496837761056
H            2.99021710302819        1.99718336231134        0.71367619333971
N            3.06626371237573       -2.19486278478510       -0.91306842214786
H            4.06135140940728       -2.11590096342982       -1.04016075282078
H            2.61371658904792       -3.08237070013791       -1.05687624929691
