30
 energy: -61.298778383077 gnorm: 0.000795908142 xtb: 6.6.1 (8d0f1dd)
N           -2.37006314814756       -4.58909830985088        0.86896923565049
C           -2.40267955448543       -3.47540934486248        0.59204597604193
C           -2.40382482182509       -2.11848845030285        0.25495019073880
C           -3.46495944676684       -1.33752477552988       -0.10975179210216
C           -3.00904133894045        0.00605168384248       -0.37334594442078
C           -3.85525831675391        1.04115939303762       -0.78367705669746
N           -4.58992996614038        1.85419329973373       -1.12647589559814
C           -1.63901287769262        0.05085450863557       -0.15348515980291
C           -1.21114959249412       -1.28160894888371        0.23252656052769
C            0.09180813296756       -1.57250787663685        0.44212186267436
C            1.09185140536421       -0.55692667503138        0.23101527199381
C            2.38922336599385       -0.99978935381325        0.04933060600098
C            2.70124458076601       -2.36570256859597        0.22366848625237
N            3.04046634094694       -3.45615375859201        0.34319270432970
C            3.51245488648601       -0.20054604872458       -0.44909292936327
N            3.74055964707845        1.04343185600806       -0.15761200047008
C            2.92102533444327        1.91561486931180        0.41482097514869
C            1.54387173721613        1.91044034460309        0.44663332190825
C            0.96244734745263        3.06752927255210        1.02046616887140
N            0.56312406379224        3.98030285670257        1.58818535235365
C            0.65305898626027        0.82543358183716        0.10033165977162
C           -0.68584511256870        1.09455394763938       -0.16225595149835
C           -1.11512369007875        2.39894869026033       -0.50246422518083
N           -1.48107921565960        3.41800245193897       -0.87806703584634
H            3.43097635736931        2.78827872599670        0.80739284924387
N            4.42512503873771       -0.83026002265402       -1.20510610357270
H            5.23298777039867       -0.30848066119612       -1.50145110996577
H            4.39578601420271       -1.82491054343172       -1.35222702151322
H            0.41003834339788       -2.57950048558589        0.67196441487579
H           -4.48955362909654       -1.65068327661172       -0.19479357334567
