32
 energy: -59.952337368552 gnorm: 0.000940974217 xtb: 6.6.1 (8d0f1dd)
N            6.15400660926867        0.42583650720257        0.40611061932579
C            5.03261650953457        0.22256964494444        0.26571246073115
C            3.65734061284889       -0.05330541770232        0.09814463969253
C            3.26576158244335       -1.40678271420747        0.17192968680972
C            1.97010060020549       -1.89060715662899       -0.07263836656686
C            0.72815954661683       -1.28221775759773       -0.18900130044410
C           -0.36635764359335       -2.16104582880289       -0.35318443572738
C           -1.66533572267010       -1.72865514719234       -0.26935583203703
C           -1.93095685476549       -0.31721399401916        0.02941896401324
C           -3.29857811557781       -0.16669732758913        0.15140779598282
C           -4.06971972483409        0.95790291058020        0.43396956245267
N           -4.80427624719394        1.81527193521046        0.65647063064911
C           -3.90035550665315       -1.47369589704712       -0.09354032140183
N           -5.22637746819139       -1.67240989597040       -0.06228072156014
H           -5.84244084862003       -0.89908741536140        0.12390641329416
H           -5.61611904482261       -2.57819385922238       -0.25252297743393
C           -2.89730954962127       -2.39724698622190       -0.34216812271504
H           -3.03725978340004       -3.44027919217062       -0.55011442394146
C           -0.85477371663954        0.58865500036926        0.09722685547200
C           -1.15853839496205        1.91851232200445        0.46786518002955
N           -1.46691653852756        2.94065731461441        0.88819840469101
C            0.46003039816560        0.15848264353807       -0.09867627595185
C            1.47445622342192        1.14195860393618       -0.29582924313406
C            1.06266835819753        2.42762455262555       -0.73985988456701
N            0.85784409477549        3.44765089598958       -1.22309379086918
C            2.85127980274839        1.04730098532866       -0.20162386337573
H            3.38900236366002        1.97637301080750       -0.35863358944909
H           -0.16563061392338       -3.21377245880073       -0.49330656128790
H            1.92892119654516       -2.97494684491577       -0.11472517023379
N            4.22125849147149       -2.32907977613192        0.44809568807482
H            4.00471560561670       -3.30927054864264        0.43654313298234
H            5.17950597807562       -2.04739032712713        0.56659480759528
