35
 energy: -73.489526153459 gnorm: 0.000918846560 xtb: 6.6.1 (8d0f1dd)
N           -5.89636745987731       -0.25164148478266        0.76123947536543
C           -4.77995730022325       -0.16702076159899        0.50484709552999
C           -3.40734667675238       -0.06204177838252        0.18669031168691
C           -2.86406534750376       -1.17662152627205       -0.53263707924076
N           -3.74772097273562       -2.01386393990805       -1.11361566573228
H           -3.42586383765714       -2.87126768497610       -1.53260036939817
H           -4.73743040851921       -1.87322562883117       -0.99996933187409
C           -1.50344252679066       -1.48990563617747       -0.57813818686949
C           -1.19060344414221       -2.69785093502629       -1.24252022607410
N           -1.00841938078328       -3.63350565738570       -1.88331189646371
C           -0.37332086702825       -0.72836040131074       -0.12699103386892
C           -0.37348312228432        0.72265031138229       -0.16881910927254
C           -1.45102283780778        1.52166858292780        0.15828328264360
C           -1.25443731041995        2.92128783595054        0.29808464726973
N           -1.21985855892102        4.04404613586508        0.53293650859389
C           -2.78081499863473        1.12088756712184        0.57488527290517
N           -3.47603057839888        2.00036189308758        1.32035855225383
H           -4.43154027662139        1.80273073625334        1.57006645006424
H           -3.09854434803248        2.90698088921035        1.54209590946524
C            0.90316819435741        1.37379168929184       -0.43153191562599
C            0.95149455760071        2.66181007947315       -1.01106222620182
N            1.03146996172244        3.63338008745820       -1.61425425346914
C            2.05910872089509        0.69745951009594       -0.16354016742819
C            2.02914779321374       -0.69267545089454        0.26444819557825
C            3.33504608434477       -1.07530133433153        0.53927190029966
C            3.79133276238871       -2.31675762569048        0.99125587595904
N            4.20581976391367       -3.31735723985151        1.37262834811989
C            4.19497053954666        0.05077333022241        0.27881622679988
C            3.44812573433171        1.11426150925667       -0.15815079521786
C            3.92634817062504        2.38843563669255       -0.48746634164975
N            4.34287291990543        3.42692308219265       -0.74127421179860
H            5.26146293330654        0.03717742972683        0.41011029657328
C            0.81042334766300       -1.39785609358003        0.18609460065151
C            0.79375891522601       -2.77960365133901        0.48301634604551
N            0.78095372630518       -3.87487372136059        0.82193761958452
