28
 energy: -57.053810734848 gnorm: 0.000888433957 xtb: 6.6.1 (8d0f1dd)
N           -4.15698751225915       -2.63377552416413       -0.77654038380117
C           -3.52592995986998       -1.70575176495229       -0.53648216672770
C           -2.78216753649198       -0.55587051154276       -0.24621492603271
C           -3.28201421568259        0.70232401996520        0.00007656946961
C           -2.20430399038669        1.61414887056101        0.26253959482237
C           -2.37622790781400        2.97255822729182        0.54664068322229
N           -2.55655488598347        4.08134754742930        0.78456325244046
C           -1.01069021705383        0.91062620237921        0.18082718734425
C           -1.34655807893181       -0.48467857594364       -0.13579124392001
C           -0.38415425810315       -1.45237067415201       -0.22306457972241
C           -0.66098036981733       -2.80942341126984       -0.49703713433171
N           -0.84171344664348       -3.91399145615051       -0.74152813426524
C            0.97565893469881       -1.08101574632914        0.10441236255449
N            1.76466842300850       -1.99375682525861        0.54705989733720
C            3.03190873521037       -1.91247059819504        0.96175466697253
C            3.99458044185166       -1.06594319554248        0.50124482442435
C            3.69475537013475        0.08151836472551       -0.31532179143398
N            2.56097361042882        0.73016990025774       -0.28484993917908
C            1.33983915623027        0.36333621507238        0.06571088581074
C            0.33596463127376        1.31997621303831        0.22684374564579
C            0.69898419873412        2.67820487751238        0.34196867515211
N            1.03600003959311        3.76982144720476        0.43841647270379
N            4.67447429287988        0.62733714340702       -1.05652949710052
H            5.61269186228621        0.27181073596190       -1.02379286021474
H            4.49089034396356        1.49709989111403       -1.52737257072003
H            5.03027339183005       -1.25280890973638        0.74822908204292
H            3.30251563300814       -2.71893376149899        1.63368524626844
H           -4.32078105329530        0.97943693301648       -0.00087460106084
