33
 energy: -58.873789536326 gnorm: 0.000398809357 xtb: 6.6.1 (8d0f1dd)
N           -3.98650833727139       -3.59310864326543        1.07020243578488
C           -3.47445714174367       -2.61207308628139        0.76511416131129
C           -2.82317791388800       -1.41960520793582        0.37682150887665
C           -3.57915541096215       -0.27526772220111        0.34407220874350
C           -3.18212557942143        1.00816788576647       -0.07286768005322
C           -4.23887298792388        1.92783687656870       -0.23852668642639
N           -5.09083751733576        2.68649610862495       -0.38411167291713
C           -1.88298955303153        1.49809766842502       -0.30080467462188
N           -1.79257006153873        2.76179958590081       -0.75344187923182
H           -2.62902267682529        3.30357993977881       -0.90333926579746
H           -0.89975310450595        3.17078731394985       -0.96503488395821
C           -0.63030620614481        0.81465504812420       -0.06309008434208
C            0.48348871001251        1.57456205441012        0.21497250085908
C            1.75981438347806        1.00266401046181        0.27819590691336
C            1.93473236423037       -0.38843961886988       -0.10226857266564
C            3.33362498393037       -0.66152301166276       -0.06251346284102
N            3.94243559888348       -1.86955109474177       -0.35396830363382
H            3.50638793576638       -2.68128496359885        0.06191480312240
H            4.94175733213382       -1.85433259954071       -0.19245578735807
C            3.97764089658205        0.52754128962059        0.29916094433607
C            5.35950121765701        0.65842798328180        0.44977559901610
N            6.50149947954819        0.72073351143599        0.57316542531124
C            3.00798485075173        1.54681486364918        0.50261088550574
H            3.23326753877378        2.55911917627315        0.78137705512898
C            0.85364726765883       -1.15471376538908       -0.47239615952029
N            1.02237712226408       -2.40381639566953       -0.98459974482465
H            0.26091055378369       -2.83162872429086       -1.48436808737344
H            1.94788535885108       -2.62325836393806       -1.31716779487794
C           -0.48647310621233       -0.63954318197262       -0.21292245345056
C           -1.45870742879384       -1.57513944343119       -0.00439676947046
H           -1.15360547122044       -2.61423911807357       -0.04490298568850
H            0.39802565840716        2.63160554288665        0.42303422620720
H           -4.62706202978908       -0.37395282609841        0.60493013333672
