26
 energy: -52.025012057003 gnorm: 0.000620220364 xtb: 6.6.1 (8d0f1dd)
N           -5.60753983045300       -0.31157150083266       -0.19164582868251
C           -4.46244822319028       -0.22408416581677       -0.13334878565786
C           -3.06122954914526       -0.15737523606511       -0.03416552626037
C           -2.36284419483360       -1.40474832620228        0.09536020953858
N           -1.09343570716053       -1.60833550447120       -0.15089861479750
C           -0.02403233382239       -0.85301034567063       -0.11858786990756
N            1.11001116314914       -1.44524122135490       -0.48001467471142
C            2.25385686488025       -0.82002777124686       -0.41844138748775
N            3.47247289329114       -1.29854489614359       -0.54286036821358
C            4.31292595876257       -0.32040864821699       -0.11456664643955
N            5.63374154702152       -0.51853168757812       -0.14872570163159
H            5.98232636164842       -1.37212125477232       -0.54850738130775
H            6.26980459508216        0.17920323914379        0.19202070185521
C            3.63573519168031        0.81505897020251        0.39576121426010
C            2.30447282212722        0.57918358540942        0.13671012121429
N            1.17225834462543        1.18888814178003        0.37790955219276
C            0.01786871229650        0.59233802317356        0.21399014736516
C           -1.12171209145823        1.42989906044316        0.00811700666203
C           -0.81990703850228        2.80278432081269       -0.16492289332580
N           -0.60643090309676        3.92250644527651       -0.29317412442128
C           -2.46057908813865        1.09283849492177       -0.12337851758552
H           -3.13301189731951        1.92562153180620       -0.30004619403118
H            4.07636407387759        1.68006189447692        0.84706362305142
N           -3.07572047224408       -2.50936826972507        0.38313754295318
H           -4.07961993197357       -2.47504421864677        0.43964740183345
H           -2.60226106630433       -3.39651032440390        0.36430257663490
