22
 energy: -44.329686660496 gnorm: 0.000831442320 xtb: 6.6.1 (8d0f1dd)
N           -0.54432247960331       -3.39781930936929        1.04602352376604
C           -0.63462643468842       -2.27773417459283        0.82163038631714
C           -0.71945394350662       -0.88974161172154        0.57617421878150
C           -1.93075923815936       -0.24025267712979        0.42622083310884
N           -3.18165791842799       -0.69992138879401        0.44974721574647
C           -3.93228818665439        0.20289105735775       -0.17534969538993
C           -3.19861638064532        1.29308864361827       -0.68543305179786
C           -1.90881822382298        1.11153142959482       -0.22557023151421
N           -0.79604928315691        1.81110592198962       -0.31053649685568
C            0.34758475657661        1.30124215100350        0.02739611569407
N            1.33413768327213        2.07521324279347        0.46988548537567
C            2.58275859600228        1.76059405500259        0.67997870727047
N            3.31434826945477        0.75698679183520        0.23786832361124
C            2.78779894302169       -0.36162947178251       -0.24877208350353
N            3.58248715069285       -1.17207722590184       -0.95764771086741
H            3.27692587701649       -2.10846772263398       -1.16010506439771
H            4.55046965382446       -0.92205743909162       -1.06337857601343
N            1.58735154240960       -0.83765106978778        0.08884896904509
C            0.47403613438310       -0.19032048172091        0.22360779409988
H            3.13767237303528        2.49599171337427        1.25501357617201
H           -3.58312595724072        2.13431535482761       -1.22515588647030
H           -4.99465462348267        0.05299727782918       -0.25092092017881
