27
 energy: -53.315972568959 gnorm: 0.000584237403 xtb: 6.6.1 (8d0f1dd)
N            5.47726348608475        0.43118161146863       -0.73174485021634
C            4.36955459372629        0.27093095527880       -0.48970787260800
C            2.99335126714802        0.08070003971308       -0.19638843857267
C            2.52534574084295       -1.20806906295180       -0.21779420243107
C            1.21614806989448       -1.65204969285789        0.08033485406704
C            1.08737756329738       -3.06459670545645        0.19443839456095
N            1.05745431262842       -4.20616510330344        0.28243962645363
C            0.01874371112619       -0.94499999394709        0.17723164599982
N           -1.04136789244142       -1.77890346238263        0.33708272497830
C           -2.23786936711972       -1.31735655750744        0.18077740033769
C           -2.53070923895665        0.09051598048380       -0.17514620336545
C           -3.87867197958898        0.19462539914131       -0.35322862990206
C           -4.45743356785291       -1.10332830200911       -0.09700172380796
C           -3.49065689184926       -2.00666903514163        0.22781864618735
H           -3.60665694590930       -3.04485906963130        0.46599637432270
H           -5.51210115478004       -1.30284573354992       -0.15867663927336
H           -4.43051081518861        1.07463767957311       -0.62553263390464
C           -1.43627272111081        0.98621026753592       -0.18259607963727
C           -1.70701965965595        2.33506904384616       -0.51124459049451
N           -2.00649559379883        3.37890370951930       -0.87931794929150
C           -0.15446371717933        0.50168906559628        0.05415238179450
C            0.92834653959567        1.42877185343970        0.28360871792016
C            0.56356937424349        2.71561653958877        0.77186169446012
N            0.35733126136030        3.72532178484264        1.27229673101648
C            2.27973150590951        1.25806652308463        0.16682148137827
H            2.89467066425256        2.13105335531903        0.35449042388893
H            3.24090276182239       -1.99047154949191       -0.44371230556075
