28
 energy: -52.269240930611 gnorm: 0.000727845256 xtb: 6.6.1 (8d0f1dd)
N           -4.65966548909937       -2.75525436130908       -0.00090871010289
C           -3.99652043968106       -1.81632474063190       -0.00080144512384
C           -3.15200807092285       -0.70470738314556       -0.00029771680192
C           -1.71924185594816       -0.77295915568471       -0.00003260380401
C           -1.22539466178507        0.61096212679810        0.00034401511376
N            0.06837475498415        0.89913941499279        0.00049881871268
C            0.95830933185950       -0.07601540718499        0.00053834121942
C            2.29114310707593        0.42691566508438        0.00080614999798
C            2.33122558788877        1.84753161171618        0.00063915076663
N            2.47960331541745        2.98552637177563        0.00203435711627
C            3.54066179475371       -0.20750970567075        0.00099065733919
C            3.75227699877380       -1.61089741160651        0.00095547162999
C            2.84090021526996       -2.62639698073954        0.00061278609848
C            1.43914411167493       -2.57252266495185        0.00025108555908
C            0.57729911749413       -1.49504155746031        0.00023659429533
C           -0.81917942754926       -1.78955325699676       -0.00009846087416
H           -1.13784632864159       -2.82389485357711       -0.00038790787779
H            0.95392758911058       -3.54260559610184       -0.00006265039502
H            3.25432167830703       -3.62701467256698        0.00061763742312
H            4.79598858043504       -1.90284024397521        0.00119563413015
N            4.65293369675335        0.56475254018133        0.00095576135993
H            4.57329900576811        1.56761349060528        0.00162019982956
H            5.56607429687969        0.14830195842886        0.00206558979049
C           -2.33637586023771        1.45205529782328       -0.00013512753359
C           -2.34417423512627        2.84954406052215       -0.00164355636123
N           -2.38359584036204        3.99750593578346        0.00314577780892
C           -3.50440878999454        0.63169317063581       -0.00019560716381
H           -4.50993015849822        1.01407113445584       -0.00060137355269
