28
 energy: -57.051985095514 gnorm: 0.000194197425 xtb: 6.6.1 (8d0f1dd)
N            5.65713080766185        1.22523343230093       -0.39025085483816
C            4.57270762791765        0.86734983181782       -0.27266112517460
C            3.23310040454630        0.46018939091338       -0.10226202644757
C            2.29973810786748        1.47172950267228        0.25681089822244
N            0.98776464579404        1.39148378306320        0.08673158634423
C            0.15509249037949        0.40221473869419        0.00471295255697
C            0.43212930887079       -1.04258302916038        0.14438522516707
N           -0.51790088661538       -1.92524606652365        0.31254114187980
C           -1.79310354211830       -1.55395205167064        0.26032619071764
C           -2.94409197335933       -2.27217528031921        0.49133533565294
C           -4.05299384328837       -1.42347828148934        0.23724431112348
C           -3.62498271833513       -0.15630201536655       -0.12649059097549
C           -4.42363660704477        0.93837542316461       -0.46999595265724
N           -5.08598693604895        1.83435416733312       -0.74822193084537
C           -2.19247834466630       -0.17533246599829       -0.10902130935201
C           -1.22216973627894        0.78115493406060       -0.21946029346648
C           -1.49606449266503        2.15639757191975       -0.41404033623294
N           -1.68448475333893        3.27448640609791       -0.57551753461460
H           -5.08323579081442       -1.72090119299670        0.31897250728638
H           -2.99906552803516       -3.29531096824123        0.80669677089833
C            1.74293742354852       -1.55982000651184       -0.11004809368623
C            1.79294218349255       -2.96658197363635       -0.29476498579128
N            1.88150948036213       -4.09922013293266       -0.44213497968809
C            2.94206049286610       -0.89476120288968       -0.29209506251472
H            3.78643453306758       -1.51513606591271       -0.57165738001309
N            2.73543305576355        2.66554473385405        0.68898687801053
H            2.06022898978815        3.39994667850464        0.82398618071895
H            3.71864153658477        2.87527125735634        0.73214240992029
