27
 energy: -47.738821751431 gnorm: 0.000408797197 xtb: 6.6.1 (8d0f1dd)
N           -5.30566567221587       -0.14592377274013        0.00087138719357
C           -4.15978386488818       -0.06089395456856        0.00207122964511
C           -2.75433083940570        0.07374389460050        0.00099011110249
C           -2.03609654599953       -1.14236428935015        0.00052629351639
C           -0.68566421724025       -1.36226940725229       -0.00000346185814
C           -0.30229746837679       -2.73113574424907       -0.00028892802611
N           -0.06888759391095       -3.85319320828570       -0.00068323022339
C            0.43078951345781       -0.45146737868826       -0.00024014880498
N            1.58778588730636       -1.05689551258873       -0.00078939108549
C            2.71666144293340       -0.33863627723846       -0.00106425055659
C            2.69953583473867        1.13674202038444       -0.00072531817463
C            4.06905002525691        1.56357652160213       -0.00116287820287
C            4.84394428041934        0.44425559508228       -0.00173139133934
C            4.02532559198018       -0.73805346794192       -0.00167146524392
H            4.38832973481071       -1.74721707584983       -0.00204770377198
H            5.91959703024878        0.42344879856531       -0.00216005826947
H            4.39726443951543        2.58593731052109       -0.00105574094679
C            1.50628434890064        1.77358671763471       -0.00012667363554
C            0.28708187740795        1.01290457890370        0.00012580304241
C           -0.87567573982233        1.74160573928089        0.00068413740675
C           -2.24822715730932        1.37897864381301        0.00105860492635
N           -3.12944287628955        2.40860627529048        0.00166576413297
H           -4.11906704838021        2.22900582117668        0.00169569671830
H           -2.80962458047022        3.35997988172166        0.00139391137162
H           -0.73046791026544        2.81911496965733        0.00090554402575
H            1.43899173945194        2.85496641432916        0.00016992761336
H           -2.65978817115381       -2.02999176521031        0.00060767814417
