33
 energy: -58.070042529797 gnorm: 0.000605188552 xtb: 6.6.1 (8d0f1dd)
N           -3.75769528782293       -3.50380676282352        1.25204819221798
C           -3.22512055519600       -2.55331171329219        0.88837182459106
C           -2.54903249015714       -1.40169847240470        0.42909269413944
C           -3.26338210353615       -0.24126595679893        0.36714774131676
C           -2.82799938716098        1.01386524266965       -0.13428933921037
C           -3.85561575421855        1.94259077179393       -0.38296258706809
N           -4.68240170118580        2.71537504064353       -0.59383566001800
C           -1.52087159772172        1.43983808832835       -0.37945738354482
N           -1.36787186175090        2.66509614903194       -0.92231480437545
H           -0.45518467663472        3.00744486782284       -1.16311141104065
H           -2.17900426404379        3.21950170647072       -1.14453165609664
C           -0.28751128707462        0.73078165480254       -0.07694304946819
C            0.83583588554158        1.47325245328561        0.20815253740162
C            2.08835540131435        0.86061998809034        0.29963988527358
C            2.22674459410354       -0.52586140185060       -0.09073002252470
C            3.64354060490576       -0.77053375995171       -0.02597877380400
N            4.30648601874607        0.31228459234756        0.33552374014539
C            3.38927824789292        1.30849421380260        0.52711786588737
N            3.81400856752661        2.56821153279726        0.83997691802516
H            3.16696932716007        3.15664521071249        1.33856708084186
H            4.77389512953521        2.62041978996566        1.14123354618022
N            4.27956033128480       -1.95291220267008       -0.31106762952875
H            3.82624520290881       -2.78562586282825        0.03649052851203
H            5.26660545191636       -1.91572225936457       -0.09621001257560
C            1.14168872028014       -1.27739774270932       -0.45176609057593
N            1.27829127441410       -2.54252526588836       -0.94750568837343
H            2.18592383691314       -2.77110674912909       -1.32010838873670
H            0.49574419876007       -2.94303502103420       -1.43834565734760
C           -0.18894951107340       -0.72602774744825       -0.19391891855943
C           -1.18956459210929       -1.62506091700090        0.02564597358397
H           -0.92918209957960       -2.67591514245699       -0.00659236674103
H            0.76380612713957        2.53778895374305        0.38377733994706
H           -4.30663526228026       -0.28397658775642        0.65893530942550
