31
 energy: -54.620648979168 gnorm: 0.000939023704 xtb: 6.6.1 (8d0f1dd)
N           -3.86491595810404       -3.13312955476923       -0.76173696935641
C           -3.14408038351937       -2.27335874332580       -0.51061649661544
C           -2.24564549531877       -1.23186813584919       -0.20151887911615
C           -2.72957671498861        0.05067772578901       -0.36752690786340
C           -2.13358071928540        1.23680365336682        0.03870042359213
C           -2.96790322095347        2.37236315439209        0.04175824492107
N           -3.62866678042635        3.31386361347914        0.04833045547751
C           -0.77949126564092        1.44963972079181        0.42577097531692
N           -0.53009836455785        2.62902893260418        1.02525310351262
H           -1.27803952416224        3.28685511125738        1.17525882699681
H            0.40669435139573        2.86840095102707        1.30564253376174
C            0.32143916186834        0.58155618763059        0.15591471783085
C            1.58317913424182        1.17590924532345       -0.09231769080830
N            1.73662767544725        2.53657112875168       -0.32277784258299
H            0.98166288138198        3.00656672968737       -0.80084001911449
H            2.64253796546653        2.76042756070020       -0.70687320808865
C            2.73524826835469        0.39045357062116       -0.12671788790828
C            2.64385191917473       -1.04193628797909        0.06927271460713
C            3.96639604101235       -1.50492164516802       -0.04856184309611
N            4.80802042292645       -0.49986986867346       -0.27432146949402
C            4.09331798161522        0.63425410053616       -0.34417843914959
H            4.59529757080123        1.56917772365401       -0.52144010683087
H            4.32278023809972       -2.51444804876081        0.04134392990553
C            1.41369649937773       -1.63383202146279        0.24621817697627
C            0.23186867424457       -0.88172949028860        0.25428212010873
C           -0.97541570650024       -1.62826265354062        0.33194872947753
N           -0.95545680575470       -2.86931882466136        0.85399979972064
H           -0.11813587697324       -3.25761020091854        1.25044091644830
H           -1.76738914558123       -3.45958925888462        0.76783306240772
H            1.37886126831532       -2.71367864171701        0.26566428813533
H           -3.74185790125888        0.13308084978728       -0.74638779437400
