29
 energy: -56.788390887412 gnorm: 0.000689503114 xtb: 6.6.1 (8d0f1dd)
N            4.30600264984428        2.59323600752197       -0.41748753726333
C            3.63255123800365        1.67224856916507       -0.28996014742843
C            2.83539490468897        0.53353095128023       -0.12822482707332
C            3.29055076835286       -0.76092626774889        0.05157109018597
C            2.18518008642835       -1.65107982891586        0.19200808835885
C            2.29929830454855       -3.03136233574227        0.38654177239009
N            2.42925976966987       -4.15987662085063        0.55464851893852
C            1.01516145751608       -0.90074257384191        0.10457304791284
C            1.40487716338684        0.49743775273246       -0.09689949752429
C            0.45579533251971        1.48488852976956       -0.19284887065356
C            0.82892626143155        2.83205974736262       -0.40128247695633
N            1.09135671045859        3.93268820050770       -0.58777847111621
C           -0.94150280694419        1.16636375974117       -0.03633132436200
C           -1.81109333811707        2.19512058218379        0.22957354626188
C           -3.19008061912932        2.14959278404347        0.55700336851390
C           -4.06278699838141        1.12944438343197        0.37451927858734
C           -3.73728996785173       -0.15218817729097       -0.20269136434160
N           -2.56421921530972       -0.71035328034776       -0.22174658530915
C           -1.33141894134996       -0.25486502052237       -0.02779608857689
C           -0.34312427802146       -1.24329254004699        0.09593976177572
C           -0.76292328494331       -2.59095992133425        0.15505221805479
N           -1.13250067076417       -3.67505949663213        0.20001874502840
N           -4.74807002878781       -0.89863423113571       -0.68595847206381
H           -5.70565845677854       -0.60974368944223       -0.60224102830885
H           -4.53618479731452       -1.82969772884817       -1.00323373830686
H           -5.09509141670726        1.27152489432710        0.66550813521865
H           -3.58668422908263        3.06951069405049        0.96674383739367
H           -1.37007287561353        3.18452237569783        0.28222557881805
H            4.32195719969332       -1.06298700512755        0.08227509310871
