32
 energy: -64.755040160921 gnorm: 0.000641777932 xtb: 6.6.1 (8d0f1dd)
N           -6.25022424259503       -0.50088352962149       -0.00226409024999
C           -5.10502861061345       -0.43064735858582       -0.00143324701941
C           -3.69218567049175       -0.33371717374225       -0.00092323882884
C           -3.02360037019015       -1.55345343107397       -0.00100776953012
C           -1.66481606805998       -1.84232776851472       -0.00047989304909
C           -1.41276129526895       -3.24153131649989       -0.00061673572806
N           -1.27087799761050       -4.37901040944269       -0.00145637436206
C           -0.53446243333182       -0.98677091441055        0.00034065959039
C            0.73451467786765       -1.57270320702860        0.00085255875237
C            1.86195140338468       -0.77338024048587        0.00156529151582
C            1.67219544028517        0.68845574201786        0.00181206417711
N            0.48122086373323        1.24459172802197        0.00138894060520
C           -0.61183193081457        0.48052498420452        0.00067833459199
C           -1.77263837659335        1.27848454003148        0.00035563629522
C           -1.46452319047762        2.66829619591936        0.00084338816540
N           -1.32854081549919        3.80778398566884        0.00113016538012
C           -3.15515319643374        0.97844975026915       -0.00030122912386
N           -4.02300463625199        2.01014354447601       -0.00034672882906
H           -5.01524754192690        1.84166067618155       -0.00082600516606
H           -3.68441739351601        2.95834132803704        0.00004888454451
C            2.93445725659558        1.28938785448946        0.00265373720218
C            3.26123956519759        2.64611371088156        0.00342432356534
N            3.61062598140430        3.74079929620227        0.00313546876379
C            3.90458710502083        0.24357359747788        0.00283735537754
N            5.22440092937718        0.41629522428787        0.00359248275375
H            5.61121258933898        1.34651526580053        0.00402782891962
H            5.84222322585935       -0.37921786474311        0.00370363333776
C            3.23610678943515       -1.02295541297809        0.00225763298721
C            3.88906722372738       -2.25389376175965        0.00265811864995
N            4.46529418337125       -3.24919260932799        0.00173671203933
H            0.83230084130308       -2.64939549276121        0.00066587135510
H           -3.67367410202629       -2.42268861239153       -0.00155458908316
