28
 energy: -57.055235999466 gnorm: 0.000541148225 xtb: 6.6.1 (8d0f1dd)
N            4.55158793533766        2.67782115204723        0.52747449344857
C            3.91305079995208        1.73495187842298        0.37369729913211
C            3.12757998118850        0.59535758299240        0.19121826647876
C            1.74084978585189        0.54949675363799        0.10258611532990
C            1.36592343890460       -0.85790124943371       -0.09309705285278
N            0.14709321462010       -1.26606579204740       -0.20784066858478
C           -0.86430481805518       -0.35715750318238       -0.11866076910867
C           -2.09774767132147       -0.98679167307597       -0.06914112814639
C           -2.06530630192524       -2.40164840669030       -0.15228393189947
N           -2.14897100841932       -3.54477912631357       -0.20244111138958
C           -3.41646480599417       -0.40895514303318        0.11935554997282
N           -3.76922826189270        0.83909748904394       -0.05843932945485
C           -3.00319405696136        1.89757222612992       -0.26024154760292
C           -1.63015562234221        2.06441643201996       -0.16620793841279
C           -1.21670428392682        3.41626527873694       -0.26478441086899
N           -0.92695256203914        4.52235497045362       -0.35187705935297
C           -0.59756003114176        1.07808419150880       -0.03239242096621
C            0.72034794104760        1.49452128579245        0.09861485391262
H            0.95320596577460        2.54714392199194        0.17705787360412
H           -3.58442069165159        2.79123592897135       -0.46767117054589
N           -4.40939331431802       -1.24460579248626        0.45905554568267
H           -5.33620967916645       -0.86271722504751        0.54803632121244
H           -4.25995481447372       -2.23622569630103        0.54422477179725
C            2.58829451459264       -1.62750844076710       -0.11807264163880
C            2.67269997470506       -3.01459167839335       -0.28273619051756
N            2.75602887846504       -4.15126913554758       -0.41607427835671
C            3.62862136510106       -0.74542928142323        0.05559147989423
H            4.67260664008871       -1.00232042140701        0.08464922253378
