28
 energy: -51.459175351592 gnorm: 0.000947293297 xtb: 6.6.1 (8d0f1dd)
N            5.63616560209100        0.04390975224538        0.00121811816351
C            4.48806920524315        0.08197174570022       -0.00254535998473
C            3.07667524967176        0.14478792936957       -0.00531798973124
C            2.42773886399924       -1.09071481792726       -0.00253597502629
C            1.07681611778594       -1.38541216146061       -0.00053178969862
C            0.77275380231050       -2.77356165090272       -0.00960385873868
N            0.59349674210154       -3.90559799159894       -0.01477278030915
C           -0.06595281090335       -0.53992847747847        0.01221723001839
N           -1.21345639675323       -1.19770143625953        0.01043137323917
C           -2.33647335008953       -0.48077139453370        0.01573460597995
C           -2.28939989432075        1.01542970241467        0.02422082059299
N           -1.14363507893960        1.66514568169984        0.02460835220753
C           -0.01133760828909        0.93423556396947        0.01519120736625
C            1.13034219981533        1.72383661278940       -0.00477854393812
C            2.50038464021629        1.43744952423708       -0.01307181586888
N            3.34311215524516        2.50082833390963       -0.04238955905386
H            2.97761641342957        3.43491007479776       -0.00191319441457
H            4.33883153068899        2.36568278303550       -0.00892175264813
H            0.88732546076256        2.78164458203734       -0.01536473165131
C           -3.59670799643425        1.47438412258017        0.04135914151528
C           -4.43131408020221        0.34471937590884        0.04103417288152
N           -5.77188835922749        0.36104928281485        0.05511324890846
H           -6.27237262473066        1.23213508835854        0.06515769415638
H           -6.29051699316300       -0.49934389080975        0.05523458480135
C           -3.64935005392117       -0.85757442801092        0.02870588559447
H           -4.04063312089676       -1.85607503895702        0.03198599031555
H           -3.91820216966896        2.49738252311141        0.05226123755048
H            3.08827737817912       -1.95183466944087       -0.00394273282767
