31
 energy: -60.241035237019 gnorm: 0.000682692769 xtb: 6.6.1 (8d0f1dd)
N           -3.73362719972715       -3.53382879052980        0.00098109057689
C           -3.31152342249390       -2.46579979711041        0.00008955550533
C           -2.83469352915724       -1.15123265304658        0.00017138774329
C           -3.63812615505236        0.00072401007269        0.00000743443269
C           -2.83423831200905        1.15234678636063       -0.00016259499929
C           -3.31051409623835        2.46712714269394       -0.00075803000761
N           -3.73217476802790        3.53540450054098        0.00028114498790
C           -1.48831493792380        0.73415513977894        0.00001540206698
C           -1.48861040905609       -0.73358267479826        0.00022337038058
C           -0.28834181083742       -1.42432010929196        0.00032602239143
C           -0.30126916115044       -2.83607520812297        0.00036355336937
N           -0.27695830222574       -3.98366041204993        0.00069805144940
C            0.96462899914273       -0.73522890209145        0.00028617096405
C            2.10283702043490       -1.51825950307236        0.00018094749525
C            3.48125489074367       -1.18604866283200        0.00022996154885
N            4.06684433674087       -0.00080369852692        0.00086004025256
C            3.48173368977521        1.18466488384547        0.00114952969690
N            4.34841794907482        2.21878945898242        0.00189006416227
H            5.33247328809998        2.01686100546491        0.00222798061784
H            4.03383484082359        3.17194010157488        0.00217867703199
C            2.10343944899138        1.51742513181776        0.00066636943562
C            0.96492821390418        0.73484117365708        0.00028707269527
C           -0.28778246716420        1.42442808621159        0.00010388813655
C           -0.30016202561159        2.83619391002012        0.00077958995424
N           -0.27541692156808        3.98380128250522       -0.00100193150441
H            1.92072132611920        2.58633370315234        0.00065970813775
N            4.34754172024993       -2.22049970535498       -0.00043751259071
H            4.03259348832604       -3.17352916790258       -0.00010311487438
H            5.33167416965055       -2.01894725432557        0.00008218318261
H            1.91968430720707       -2.58709409136357        0.00007567741829
H           -4.71356586964088        0.00093524424028       -0.00011325995754
