28
 energy: -57.829392776439 gnorm: 0.000945590278 xtb: 6.6.1 (8d0f1dd)
N           -5.61506863616007        0.09472614021575       -0.70851026421838
C           -4.49338867065850        0.04892340384752       -0.48449345773016
C           -3.10069323362721        0.00259809953351       -0.20716748849289
C           -2.45690833245922       -1.18502437469205       -0.44134596956476
C           -1.11328791825386       -1.52904036727566       -0.13807299816873
C           -0.90767132060121       -2.92607607330990       -0.33246890485421
N           -0.87167532613690       -4.03733304902739       -0.60768568882604
C           -0.02181674659171       -0.71495879600748        0.14107916342788
C            1.25097312232562       -1.34903528715563        0.38407723634945
C            1.34288989732837       -2.65245946317819        0.92646717311127
N            1.47788259954072       -3.64449739943102        1.48374727713455
C            2.40494361763867       -0.65575019670159        0.12080277790276
C            2.35820103853430        0.74712189436937       -0.32106520860246
C            3.66041425679298        1.09330540651339       -0.56250895388323
C            4.42159015013526       -0.08535421663470       -0.25690253954153
N            3.69247855532530       -1.09476086442711        0.15155291221911
H            5.48966686003431       -0.18343443742838       -0.33219912061376
H            4.05006874951788        2.03386876957175       -0.89633161283104
C            1.11983451902337        1.43036302697800       -0.25956069269153
C            1.12617965223178        2.80975326892789       -0.57245391681209
N            1.19083674487953        3.89707085536658       -0.92974061392544
C           -0.04476979115110        0.74660480643383        0.04911813910605
C           -1.21669653054284        1.50739315580421        0.42152103805719
C           -0.95708319628878        2.76122897174883        1.04513745201110
N           -0.81061154208169        3.72595839577299        1.64446110450352
C           -2.54182440167315        1.18958772109760        0.33740846957443
H           -3.25009168406023        1.94034580010238        0.66729287324847
H           -3.05913241722200       -1.99756511771466       -0.83218683018925
