30
 energy: -50.912965887840 gnorm: 0.000664071006 xtb: 6.6.1 (8d0f1dd)
N           -3.66496796196597       -3.23011949978579        0.36129384215183
C           -2.95526280463820       -2.33359413272626        0.24117273124615
C           -2.07160273341073       -1.24485807855870        0.08819979992046
C           -2.61310880791135        0.00135685094713        0.35714201969691
C           -2.07080236390217        1.24654407437777        0.08488018554140
C           -2.95349778874719        2.33642771807113        0.23551227608914
N           -3.66281708044972        3.23356277300983        0.35270173524631
C           -0.74905942175972        1.55804087224512       -0.35082274295617
N           -0.59302211899694        2.79667895712665       -0.85857388690934
H            0.30273250992088        3.11518297113617       -1.18151933577305
H           -1.36300257371682        3.44591819611810       -0.84197179882596
C            0.40037534627097        0.72990466697539       -0.20047052241217
C            1.62962810314369        1.39707828822076       -0.08015490858770
C            2.82447170049104        0.72960954966756        0.06866516416070
C            2.82415473492417       -0.73117804618600        0.06992227277726
C            4.14571692117551       -1.14501226779169        0.26392844520301
C            4.93625262048990       -0.00096143644838        0.36692033282588
C            4.14618686573707        1.14324065171181        0.26200783470319
H            4.49246414943930        2.15920045100788        0.31152147378656
H            6.00279609798762       -0.00104434397082        0.51226011535481
H            4.49164219725599       -2.16100554498346        0.31511305865096
C            1.62894166455374       -1.39836739064948       -0.07726316336543
C            0.39998273828681       -0.73086620815712       -0.19874457581282
C           -0.75004180484095       -1.55858938231433       -0.34662626390520
N           -0.59496656010314       -2.79879717390100       -0.85089093497512
H           -1.36556364655142       -3.44726507732977       -0.83265855539091
H            0.30056839827813       -3.11916373191714       -1.17238185633697
H            1.64879361806204       -2.47751795331184       -0.00289736593473
H            1.64991607590027        2.47636747738238       -0.00805457983255
H           -3.63584121032279        0.00213818443425        0.71808227776324
