25
 energy: -49.091842897186 gnorm: 0.000639500449 xtb: 6.6.1 (8d0f1dd)
N            3.02082530111171        3.88240517502395        0.57167327089131
C            2.71631154884789        2.78867224818737        0.40136987159131
C            2.31929279615377        1.46373327303191        0.19331168233768
C            3.12571769305871        0.36260549064577        0.02104471400202
C            2.31612342440025       -0.80642951597544       -0.16779044544685
C            2.82781748167842       -2.09198716451974       -0.37503501275078
N            3.27863405342220       -3.13365716035963       -0.54723903485821
C            0.98174214046976       -0.42376977779760       -0.10739782408844
C            0.94753203037194        1.02318118354158        0.11854099209098
C           -0.22246888857961        1.71104388913835        0.17141578709900
C           -1.44690028946249        1.02186419005456       -0.07706078953642
N           -2.45942219084322        1.75653959347224       -0.41827404110215
C           -3.71501105597379        1.41314256426868       -0.64979902436796
N           -4.39216130525215        0.47983029769108       -0.04869065878760
C           -3.88293202878299       -0.60436552156556        0.51801598917450
C           -2.61549312125966       -1.13900619295267        0.34916229954271
C           -1.44532436175382       -0.46354103276103       -0.05740530236740
C           -0.22791654283157       -1.14230336302110       -0.14662593474173
C           -0.21998126160254       -2.55234776268493       -0.22942557634991
N           -0.25132616185573       -3.69667633333039       -0.29359582848291
H           -2.47408568913996       -2.16474034509884        0.67193855199242
H           -4.60780832525381       -1.17963087397969        1.08270895952504
H           -4.27599230736546        2.09870535950237       -1.27485790948467
H           -0.25427947518042        2.78571812336186        0.26937994383685
H            4.20081885552160        0.35751690552718        0.02409850418165
