30
 energy: -55.724455623186 gnorm: 0.000831418949 xtb: 6.6.1 (8d0f1dd)
N           -3.42718686207018       -4.02068494748106        0.06423533258750
C           -3.17022018844313       -2.89987013820200        0.04391298089722
C           -2.81824399120213       -1.55041577911836        0.02098753195334
C           -3.65764164823909       -0.45171307042604        0.00212501490003
C           -2.88934518085398        0.74819722540707       -0.01740782933525
C           -3.44042242499879        2.03176816328837       -0.04042792159923
N           -3.93252167611705        3.07022883877936       -0.05969470665473
C           -1.53809006827965        0.39525293324964       -0.00998512152633
C           -1.46832365270607       -1.06387487220506        0.01360149221464
C           -0.27224812738598       -1.70798184202904        0.02144093804252
C            0.95705814948279       -0.98564956213639        0.00700312277618
C            2.10190558452530       -1.74548250075934       -0.00153888098293
C            3.47984439224120       -1.37827966069641       -0.02185509638540
N            4.03252568282864       -0.18787449573921       -0.00404669653527
C            3.41564996876146        0.99345328177245        0.01998060872825
N            4.27673984509441        2.03670210794377        0.05275068863182
H            5.26178793125370        1.84364292361844        0.05710955276720
H            3.95107167866861        2.98535974121496        0.06848508373944
C            2.04507911149991        1.29702041874578        0.00711759645000
C            0.91171088979237        0.48434532157290       -0.00371489676157
C           -0.34765449263183        1.12973010721455       -0.01650594986554
C           -0.41153355255273        2.53812437407071       -0.03277109557694
N           -0.43443984306405        3.68628893391521       -0.04554626478584
H            1.83487529073616        2.36066517713021        0.00915998397094
N            4.36733400759968       -2.39738934188033       -0.05634391334693
H            5.34666514673891       -2.17508214644429       -0.07179922197395
H            4.07419950397237       -3.35603291086970       -0.07596424461771
H            1.94121838527364       -2.81820606261440        0.00370290385754
H           -0.24011868132281       -2.78840054728598        0.03520884861399
H           -4.73277191720163       -0.48215965853564        0.00192848281687
