26
 energy: -48.819510894497 gnorm: 0.000679535524 xtb: 6.6.1 (8d0f1dd)
N           -3.14960153410717       -3.86744766989294        0.00146493117309
C           -2.81643711425220       -2.76830625774903        0.00074283220707
C           -2.37112170268266       -1.44338677075851        0.00058161237645
C           -3.14417991082207       -0.29198923119740       -0.00019527521484
C           -2.30271885730370        0.85380614738319       -0.00037833030146
C           -2.76792984955425        2.17424848272109       -0.00119530979109
N           -3.19104452167315        3.24138222717338       -0.00111999543671
C           -0.97646816615578        0.41538089275446        0.00027996167171
C           -0.99857217217974       -1.04729759905281        0.00097078245242
C            0.15879705779034       -1.77081900394075        0.00160605794641
C            1.42349386752433       -1.13312418072410        0.00147509641027
C            2.53575738849867       -1.95471542474849        0.00160165985072
C            3.90597230321020       -1.64067106420750        0.00144532093691
C            4.47886335975108       -0.39610080448100        0.00139142897441
C            3.80777009567048        0.85142152936012        0.00125882355596
N            2.54515901953345        1.13150156954850        0.00092167604021
C            1.46449605206342        0.35165535583252        0.00090501891353
C            0.25853308932097        1.07183547679097        0.00031046350335
C            0.32125596818592        2.48651789254514        0.00007392258360
N            0.35985823660526        3.63125051709921       -0.00037868437942
H            4.43793761197923        1.73603271873736        0.00128830041325
H            5.55974001774480       -0.34466696159899        0.00143137255526
H            4.57573388009660       -2.49104237184604        0.00128862334527
H            2.31741100490129       -3.01730659853750        0.00156836331696
H            0.11772950023202       -2.85176994903504        0.00207002229272
H           -4.21895562587747       -0.25771030507588       -0.00073105899602
