33
 energy: -53.265922470347 gnorm: 0.000699205586 xtb: 6.6.1 (8d0f1dd)
N           -4.77797652596287       -1.79461010354654       -0.17281111829642
C           -3.81412842376615       -1.16078213295413       -0.11921536468196
C           -2.65284598661160       -0.37926357466157       -0.05798826949733
C           -2.82126062512982        0.99088378455177       -0.38141096151742
C           -1.92042410191411        2.00116265696493       -0.07882389890693
C           -0.58509830360416        1.92953585658013        0.31755420392357
N           -0.04256790504546        3.12389148044555        0.70953035231628
H           -0.66845773813145        3.89582524487077        0.86127978267083
H            0.80150661146378        3.11747760928569        1.25307907649782
C            0.29343910721321        0.81180682674519        0.20807941262348
C            1.66233669531134        1.09609073726336        0.10300589914870
C            2.61415872552198        0.11192927269103       -0.02900273000851
C            2.19238524329533       -1.28651266077996       -0.04630803858124
C            3.33821656304512       -2.06541574327332       -0.23131649039108
C            4.43291760574887       -1.20606214937739       -0.31533489930980
C            4.01029969030630        0.12300393637552       -0.20854081027046
N            4.83421466856395        1.24845803057695       -0.18537298711356
H            4.39399567615042        2.08458565487334       -0.54260814665483
H            5.73931126027286        1.08881752313863       -0.60486012391130
H            5.45625164876216       -1.51296784374478       -0.45177346945810
H            3.37483415680896       -3.13804748975612       -0.29074394345305
C            0.85405978216049       -1.57783580736262        0.08627614216669
C           -0.12935158543580       -0.58400283897975        0.20980727920266
C           -1.47169439834092       -1.03794076298006        0.36327929733110
N           -1.66458315059672       -2.27043400887430        0.89330615889075
H           -2.57840216206560       -2.69091439756354        0.86510051742090
H           -0.88299616142734       -2.82613467055434        1.18879179487609
H            0.56269177644735       -2.61689558195186        0.00114916947114
H            1.98387168500026        2.12717947817312        0.04447592250293
H           -2.32057561931886        3.00666065019730       -0.15829497591576
N           -4.01598692320333        1.35439447645703       -0.91829906669609
H           -4.75709872166284        0.67825627172179       -0.99021180849791
H           -4.24838228535558        2.32693580784811       -1.00659753858090
