33
 energy: -64.468807134868 gnorm: 0.000571629651 xtb: 6.6.1 (8d0f1dd)
N            5.99101890445577        0.23874309548415        0.80423950681312
C            4.88022033312619        0.09249309636467        0.55602587580033
C            3.50852757320947       -0.08253631778802        0.25649731966968
C            3.04980242039331       -1.38985993493247        0.32266029565957
C            1.78660165600182       -1.90486525538483        0.04525404927319
C            1.77926892549925       -3.32502696167450        0.03360776832241
N            1.84093388724577       -4.47018266889849        0.02629271794227
C            0.54180130350506       -1.25249731694531       -0.12666220849104
C           -0.58017929806179       -2.05677109269788       -0.32315373122600
C           -1.86532061598369       -1.54356093613319       -0.26771513454462
C           -2.05253173913379       -0.12292119226758        0.06356407997692
C           -3.41525964734567        0.10547392529395        0.18105444525868
C           -4.11282867430718        1.27198769706953        0.48847072379890
N           -4.77939430356057        2.17682447938934        0.73255868601321
C           -4.08113009616305       -1.14773323278231       -0.10248118659244
N           -5.40801808795802       -1.29266727708184       -0.09634245358090
H           -5.83123603810225       -2.18074837652428       -0.30378675436344
H           -5.99663216190081       -0.50369171489224        0.11749798901016
C           -3.11769455514334       -2.13400589141525       -0.36994043059150
H           -3.32172660132322       -3.16122621517616       -0.60114887599382
C           -0.93057228783532        0.70985468615561        0.15894809136756
C           -1.13155801832995        2.04599338474408        0.57384562683501
N           -1.32781973547904        3.07898585464491        1.03348787100197
C            0.36747565384850        0.20564636390805       -0.04470460186939
C            1.39299890177335        1.15318631064729       -0.29013113995820
C            0.95517040906969        2.39400173431657       -0.82111257697159
N            0.72124416568797        3.36153271671029       -1.39491117008940
C            2.79818990208038        1.07656858343590       -0.15617110104752
N            3.52643040489662        2.18766592319279       -0.40129615198399
H            4.52477943155009        2.17495197405581       -0.27749082191175
H            3.07588598633686        3.05300315338238       -0.64799873243487
H           -0.44633491036555       -3.11992709769272       -0.45926296698422
H            3.80291365031507       -2.12752895070656        0.57934691069242
