27
 energy: -47.742282918415 gnorm: 0.000537293448 xtb: 6.6.1 (8d0f1dd)
N            5.29456799663245        0.13067066929362       -0.18540628805357
C            4.14613229410446        0.09441723761002       -0.14263963516259
C            2.74118180448299        0.09098791058350       -0.08259411775808
C            2.10609977992680        1.32889261998515        0.11988214382102
N            0.81273947233392        1.61319885178817       -0.06989178531040
C           -0.25281896286105        0.87274288538834       -0.13536033724466
C           -1.45014291823086        1.64473546683822       -0.35431016642213
C           -2.66694737568710        1.08679202677043       -0.17683825970744
C           -2.79124298316704       -0.32905570998455        0.17051851170528
C           -4.12627995015923       -0.60192109262623        0.30460721651643
C           -4.86453343389333        0.61278783059760        0.04886704318511
C           -4.00935558214331        1.62378458874062       -0.23807948157511
H           -4.25026669393975        2.64282350824202       -0.47211318728795
H           -5.93734795400466        0.67704284542587        0.08666028626712
H           -4.57033125015222       -1.54784641550866        0.55278540388904
C           -1.62942391350422       -1.12017538388418        0.24049639481905
C           -0.38335403764427       -0.57490185520385        0.06183571516224
C            0.76141856403256       -1.45525045484582       -0.07311560049903
C            0.47402836739873       -2.83954655831429       -0.16422179264782
N            0.28625515143305       -3.96984673162650       -0.23098245888757
C            2.09420877506672       -1.16143359632968       -0.19467327081353
H            2.75973856774269       -2.00390495925235       -0.34792990482540
H           -1.73187385833872       -2.18241304358063        0.41164560794334
H           -1.31622756686491        2.69252722293535       -0.57853313722654
N            2.84266146651274        2.41048547812564        0.45210489363708
H            2.38505884848268        3.30363451883085        0.49875505756353
H            3.84393199934118        2.35162631640088        0.52225107591286
