32
 energy: -59.959700530854 gnorm: 0.000640730164 xtb: 6.6.1 (8d0f1dd)
N           -3.71922095354455       -3.53173956648750        0.01465331356402
C           -3.29409236860259       -2.46457660217545        0.00927040076141
C           -2.81545730715136       -1.15103496113848        0.00429796646816
C           -3.61900496862433        0.00021746116336        0.00023230494144
C           -2.81530859857364        1.15138358595392       -0.00406518463909
C           -3.29378315379046        2.46498364451937       -0.00950269360386
N           -3.71879212879547        3.53222945181605       -0.01382624355339
C           -1.46907601198867        0.73257500686239       -0.00235351812702
C           -1.46916075253772       -0.73238362879868        0.00226111969356
C           -0.26677717557188       -1.42006232583025        0.00171015388131
C           -0.28733018463946       -2.83179909230385        0.00527832112207
N           -0.27839065221604       -3.97976128965131        0.00887768559295
C            0.98738697189217       -0.73206188921200       -0.00212899689892
C            2.11731994049311       -1.53254685162669       -0.00974226217233
C            3.49724945401885       -1.25663583543917       -0.01255280337984
C            4.09866461084620       -0.00025095210242       -0.00096227061785
C            3.49739925841740        1.25621307484765        0.01084446329694
N            4.31593298092909        2.34024585563387        0.04681071372995
H            5.31107181344905        2.23300020217596       -0.02441910889903
H            3.93317311919217        3.26663164313926       -0.01238172971850
C            2.11751387035659        1.53229811772328        0.00848860203387
C            0.98747075119060        0.73195466122822        0.00117200559492
C           -0.26659624774678        1.42010635167086       -0.00218779799443
C           -0.28696101435211        2.83184707371276       -0.00514301767496
N           -0.27794430281185        3.97979555052153       -0.00995118760876
H            1.90172803883837        2.59595992142108        0.01470962126040
H            5.18263415992868       -0.00031265419325       -0.00117217220460
N            4.31562355774452       -2.34077768127461       -0.04883597578298
H            3.93277491122620       -3.26712226291345        0.01046989204069
H            5.31081816878366       -2.23367103800872        0.02201203289753
H            1.90140746220812       -2.59618484130625       -0.01583580719859
H           -4.69440920436792        0.00028369307249        0.00026142989494
