24
 energy: -49.359075365378 gnorm: 0.000628051987 xtb: 6.6.1 (8d0f1dd)
N           -1.89590730921041       -3.73498595984482        0.56674233735275
C           -1.34666367200440       -2.74554067033059        0.39308213117660
C           -0.68418508745209       -1.51047599376951        0.20924184334981
C            0.68908629993275       -1.41912292049681        0.18099298052530
N            1.60071819213538       -2.40951982026085        0.31240005336586
C            2.77838456832132       -1.85092455642926        0.14727898708906
C            2.71454395193856       -0.43926418408417       -0.10472076933054
C            3.80641494555673        0.40556658881743       -0.31759532634491
N            4.71810815365400        1.08077227769716       -0.49191399769047
C            1.36027137723289       -0.13047308458946       -0.08460843518882
C            0.60665473267685        1.04836672469892       -0.16854340286994
C            1.24739207495472        2.30175403283317       -0.28498401878539
N            1.74411659921062        3.33065611021231       -0.37741305518324
C           -0.79004585683543        0.98371073315522       -0.07974611777638
C           -1.53362032693359        2.10975868958153        0.30890211378017
C           -2.91071193938676        2.18562213086249        0.50485729115147
N           -3.84873810989408        1.44565913893206       -0.05070455611750
C           -3.65518328394859        0.32368958236528       -0.68920814529063
N           -2.68668841083593       -0.53733454565595       -0.46612204235399
C           -1.45971272726240       -0.34479241385205       -0.08972033993558
H           -4.45730011097425       -0.02399477899876       -1.32874115141195
H           -3.29370737482864        3.01128138621564        1.09357035564698
H           -0.95251594493668        2.97619916340136        0.60640911065326
H            3.67872663898947       -2.43590777186032        0.20587219938851
