29
 energy: -55.985922041686 gnorm: 0.000810846226 xtb: 6.6.1 (8d0f1dd)
N            5.68572458929023        0.20993337479211        0.45159144584913
C            4.55268236533565        0.09186170612321        0.30273018609458
C            3.16275884749138       -0.01428503794303        0.09746953968241
C            2.47318442234674        1.19299286111112       -0.26651923045004
N            1.19185960596020        1.41845186023958       -0.13018490258124
C            0.13901758776987        0.64066164712989       -0.00616753974076
C            0.09937443499345       -0.83982262521110       -0.15430611384325
N           -1.02649180447256       -1.50112293612019       -0.32102436952428
C           -2.18563584690479       -0.86666923197040       -0.21377650721291
C           -2.27678261280035        0.56978084910847        0.19351517081180
C           -3.61048532214053        0.89593297132746        0.28178215644671
C           -4.35090068200049       -0.26351736378430       -0.05880252328718
N           -5.68514882138380       -0.34353544334277       -0.09485270172958
H           -6.13691778936936       -1.20557234648237       -0.34687997582617
H           -6.25043065754477        0.44996495493920        0.15351609033238
C           -3.46511324643821       -1.33431114913101       -0.37775600884491
H           -3.75561824969377       -2.32162221470628       -0.67613619003503
H           -4.02560214818546        1.85047136615410        0.54324418734418
C           -1.08340040639706        1.29111107664027        0.26899531658929
C           -1.08721245469387        2.67947992611825        0.51319636473655
N           -1.11065610334595        3.80771754983715        0.72340343437643
C            1.25106794683188       -1.63632532224179        0.05553476629918
C            0.99987140542375       -3.02824751484820        0.17197238858742
N            0.85592064572588       -4.16128135870453        0.26877675090404
C            2.57977338906894       -1.26056573590051        0.25503365942385
H            3.25456747161150       -2.06605605876273        0.52443217063701
N            3.19918848840893        2.24392004766313       -0.70121214641764
H            2.72352033258800        3.12173569698061       -0.82587990629792
H            4.20428390982138        2.22285820898111       -0.67239353022484
