39
 energy: -63.565929387257 gnorm: 0.000999845599 xtb: 6.6.1 (8d0f1dd)
N           -4.90541191221271       -1.52707071243646        1.44596111404021
C           -4.00827757101587       -1.01005128956676        0.93234693687381
C           -2.93174546947015       -0.35257199852285        0.32931045811087
C           -3.26251925409357        0.79331280087688       -0.45542855397173
C           -2.38136693803164        1.75986007198089       -0.87014756074642
C           -1.03141290399488        1.96589410617611       -0.50726774010267
N           -0.61014053397355        3.25596899148632       -0.72490307683838
H           -1.18582045506711        3.81152454683207       -1.33627422482774
H            0.38674050681529        3.40731349927283       -0.78714175898256
C           -0.12880268119247        1.01256410464545       -0.00977869091364
C            1.19398799685700        1.39197630418965        0.35779585068530
N            1.52852588869212        2.70544383541173        0.66017364330810
H            2.50579653659747        2.80927200672139        0.89797896627743
H            0.88673226255033        3.20497036869326        1.25636801274232
C            2.22048179150551        0.46291224403653        0.26883200576964
C            1.95898843910078       -0.84984589854875       -0.28162674033374
C            3.19785279837965       -1.46382879285261       -0.50275669323428
N            3.40614133145931       -2.74931100339342       -1.05341763208715
H            3.04010899265874       -2.82307998332124       -1.99762457009191
H            4.39510560782129       -2.97318176005824       -1.06717599347055
C            4.19932538616228       -0.59741989048341       -0.03835729809133
C            3.61788099102408        0.56503516206289        0.45433492152203
N            4.29613701478983        1.68457150782802        0.99908081504202
H            4.08054258054136        1.80799118933849        1.98523025606565
H            5.29892489627752        1.56371720053357        0.90496566694851
H            5.25690706744008       -0.80565688281763       -0.06103412693053
C            0.64182975180327       -1.32260488485706       -0.30339515407341
N            0.45401409787622       -2.68317008826284       -0.49409416583165
H           -0.39094347890011       -2.97129105876998       -0.96055996560164
H            1.29365336930480       -3.16639740291311       -0.77497491088412
C           -0.41982992854448       -0.44241864117223       -0.02825970862716
C           -1.66606802959889       -0.96258464620874        0.42122599723421
N           -1.66453369486344       -2.19859471788244        0.99381235894844
H           -2.50684539943423       -2.52370668453980        1.43804393761581
H           -0.78675401827079       -2.61900934450007        1.24484257886436
H           -2.82601216195569        2.56685142029327       -1.44348156736877
N           -4.57372039003210        0.90916647465207       -0.83178886057798
H           -5.25241547799314        0.32438024049025       -0.37217068942310
H           -4.89732942481345        1.79605905638634       -1.17680765623735
