25
 energy: -49.079832417189 gnorm: 0.000423610940 xtb: 6.6.1 (8d0f1dd)
N           -5.42996813051946       -0.15122699837515       -0.00015416485315
C           -4.28556727293818       -0.11617012226105       -0.00004180791825
C           -2.86535014699401       -0.06505665085176        0.00008158224070
C           -2.20832115917293       -1.28611974046865       -0.00017438116752
C           -0.83164931418824       -1.51851317062301       -0.00002158187296
C           -0.47566656640863       -2.89947624120009       -0.00046215104864
N           -0.28885329273031       -4.02903608123896       -0.00065108286597
C            0.27265627074394       -0.64404308858612        0.00055749707693
N            1.42271840695124       -1.31679789070250        0.00077355800852
C            2.55709703362075       -0.66650993881582        0.00083515811382
C            2.62740382855829        0.82681502562578        0.00071705919315
C            3.98291705353595        1.10754632904774        0.00129945223773
C            4.62000718177908       -0.14709683145625        0.00136805469011
N            3.78199682419413       -1.18823267776615        0.00128313654610
H            5.68133843879956       -0.32468434963099        0.00145304257605
H            4.46079432384593        2.06694555868660        0.00145471672675
C            1.43421611657767        1.52591464012383        0.00087078016488
C            0.22253926763588        0.83336095060092        0.00074151257105
C           -0.97612358064360        1.59725826111982        0.00043202797655
C           -0.82421793285506        3.01505279555532        0.00001217628631
N           -0.76879751962708        4.15930303102287       -0.00003026802197
C           -2.30947101186272        1.22357433417584        0.00029421954473
H           -3.02601013079744        2.03796380225878        0.00021203008355
H            1.43656733752204        2.60793488658369        0.00118672876544
H           -2.83423426152684       -2.17131443892465       -0.00051846705388
