36
 energy: -61.217650089162 gnorm: 0.000962163767 xtb: 6.6.1 (8d0f1dd)
N           -3.85101602707814       -3.51203441920304       -1.33160092046225
C           -3.29842557316931       -2.58389193990669       -0.93869264256175
C           -2.60216612948291       -1.46021716892243       -0.44819733811186
C           -3.29785269172286       -0.29153983971059       -0.32194383852941
C           -2.82427221775149        0.93298942912453        0.20410873800973
C           -3.82111347058703        1.87325922698793        0.51418485257581
N           -4.62105234889956        2.66129291168718        0.77266365886739
C           -1.49267257005816        1.33872490193876        0.40052046178311
N           -1.31959508711736        2.55369143853572        0.96783261174524
H           -0.39430258862825        2.89085050904707        1.16951703908040
H           -2.12200748558291        3.08666027912799        1.26146754628447
C           -0.29034921075402        0.62351796639898        0.05238324414971
C            0.86952788882824        1.32668412471366       -0.26994358620360
N            0.85348378137442        2.68126430246125       -0.62136666021638
H           -0.03048500740463        3.00005567083212       -0.99494825182755
H            1.61732512539529        2.90976626667046       -1.24253524017567
C            2.11824619335476        0.67263315504429       -0.25149480057709
C            2.19594045429929       -0.72330316868071        0.13038348068563
C            3.58328259760029       -1.08984982375778        0.11301840760525
N            4.07584546727718       -2.36107130840715        0.40139041392975
H            5.07104434744635       -2.43149314915654        0.23182355086209
H            3.57473067826420       -3.10295932954760       -0.07111431937192
C            4.30921037146219        0.03361353527082       -0.20401621661442
C            3.42692911898017        1.12770735862559       -0.40687192107074
N            3.85252318063905        2.41025435948941       -0.73258426653563
H            4.85384511850772        2.51891420531368       -0.64675257095025
H            3.35521042946285        3.15166605603940       -0.25894312710909
H            5.38064289655863        0.09260598452191       -0.28375473922494
C            1.07413903498322       -1.43312839770903        0.46570639104151
N            1.15881390528189       -2.71072783958050        0.95128612402411
H            0.36652911106666       -3.06465624910777        1.46240136048496
H            2.06029144482499       -2.96218554663506        1.32675287093871
C           -0.22787719542372       -0.84020271468790        0.18936082495084
C           -1.24572006984132       -1.71091495051551       -0.04994279440732
H           -1.00813051697242       -2.76728125795168       -0.01893213987547
H           -4.35050505494326       -0.30854684104883       -0.58193276849405
