28
 energy: -53.048397383604 gnorm: 0.000468424509 xtb: 6.6.1 (8d0f1dd)
N           -5.40982191653970       -0.54653820600632        0.99143703951522
C           -4.32733291256368       -0.35383943321483        0.67009390271643
C           -2.98363812010502       -0.12155746297759        0.28027371324889
C           -2.54502713021857        1.17264148296880        0.27948164874591
C           -1.26755610416108        1.66905012853096       -0.10404577780850
C           -1.28171851977846        3.08098944677406       -0.25815963994272
N           -1.36625525139148        4.21763502610919       -0.38356825020687
C           -0.04694855028561        1.00823443086014       -0.22103384913301
C            1.11288782454856        1.83647787098849       -0.39213858904275
C            2.35424612823270        1.33996096134860       -0.17717001360285
C            2.54337466129552       -0.05853836427399        0.19773168222376
C            3.87729660645052       -0.25339962285155        0.43082486881912
C            4.55629360363696        0.99753675916005        0.19325638652242
C            3.66149411294993        1.95015985467148       -0.17258864518770
H            3.85614887928115        2.97689100994365       -0.41461394519100
H            5.61798917848165        1.12715105613978        0.29706253224860
H            4.35214037830794       -1.16872042683329        0.73078332794877
C            1.41480464126784       -0.91872383563900        0.18660688404923
C            1.63797635777665       -2.27251527474903        0.52788470637268
N            1.87880818856093       -3.32890591410208        0.90372133361752
C            0.14831288181421       -0.42640366496430       -0.07638516326731
C           -0.91850406490745       -1.37912687058272       -0.34998171805706
C           -0.50600142370720       -2.59758004771518       -0.95770163298841
N           -0.25149709195154       -3.54426210853822       -1.55098374338574
C           -2.26203231234048       -1.26812257497638       -0.17596250301427
H           -2.86501568369274       -2.14006961024302       -0.40094754746277
H            0.96772577586496        2.88321753216209       -0.61842642792077
H           -3.26431405822560        1.93432373180801        0.56051088088506
