31
 energy: -65.030499130955 gnorm: 0.000744121192 xtb: 6.6.1 (8d0f1dd)
N            6.37915714413653        0.04223607806867       -0.00655407475804
C            5.23314980175066       -0.01991123796569       -0.00276556482204
C            3.82126435814086       -0.06008957742806       -0.00160524339956
C            3.14797737696895        1.21039070126527        0.00321055175272
N            1.85371092054242        1.44697716125975        0.00109573501160
C            0.79129790339913        0.66695796473362       -0.00052253840443
C            0.73165078909352       -0.81093295051543        0.00065611649814
N           -0.41577871639139       -1.47495388847793        0.00163289266465
C           -1.55540744946198       -0.81092280553148        0.00005426192844
C           -1.63388333359788        0.66508588526166       -0.00360781825973
C           -2.98370153548689        1.02466703625930       -0.00437681333904
C           -3.55212131147963        2.30002000603898       -0.00644299641035
N           -4.08869877656709        3.31616451279664       -0.00988508119741
C           -3.74734110147398       -0.18011515289516       -0.00165626785413
N           -5.07371258481910       -0.25623870530372       -0.00150158586370
H           -5.52959413599177       -1.15509201153744        0.00073073638413
H           -5.63042186268881        0.58396399271190       -0.00363542818695
C           -2.85733642700865       -1.30651027395591        0.00160009800442
C           -3.29575254575103       -2.63110693792505        0.00611419985340
N           -3.73742586215928       -3.69175830507095        0.00569386629340
C           -0.43952069567589        1.37269814933455       -0.00369006377865
C           -0.40299757098656        2.78609651902535       -0.00546589557450
N           -0.36326065786562        3.93130991265811       -0.00668337341066
C            1.87484755502758       -1.64301283000943       -0.00191690441955
C            1.60140340528203       -3.03792084982000       -0.00489251282404
N            1.44900858282489       -4.17304544669277       -0.00463409257180
C            3.23000832935928       -1.31132085173179       -0.00407515160981
H            3.91202498455517       -2.15496628931194       -0.00750688323814
N            3.89528299219910        2.32674580117430        0.00903853072512
H            4.90076328138584        2.29640420455092        0.00955749452673
H            3.41217503543970        3.21010340933372        0.01077971077982
