28
 energy: -56.263881136701 gnorm: 0.000417026220 xtb: 6.6.1 (8d0f1dd)
N           -6.00576725386790       -0.24168264630204       -0.30275735237383
C           -4.86190215977871       -0.17866730914214       -0.21306986457453
C           -3.46611041057026       -0.06283405570081       -0.06880123096847
C           -2.95936505727816        1.25232024418152        0.24163836632660
N           -1.74243004479935        1.66624754207747        0.02607602985117
C           -0.57739690223867        1.06530926479489       -0.05751735079612
N            0.44210596306152        1.82374699330154       -0.42155392570207
C            1.67734636694034        1.35548180691034       -0.38937651068144
C            1.92509139733062       -0.02710526452865        0.12877253387116
N            0.90848288021178       -0.81638620633185        0.33888248898412
C           -0.32553651022528       -0.38505884265666        0.16741073394016
C           -1.31522281859702       -1.34874972665661       -0.14775790980295
C           -0.82439279330021       -2.64622830898698       -0.44112621947580
N           -0.46192907964111       -3.70706589453587       -0.68059164700291
C           -2.69461451885203       -1.18911766774750       -0.28845054545026
H           -3.23434830238803       -2.08395971235849       -0.57978551796288
C            3.29668670437557       -0.15070964330182        0.34091555556201
C            4.00856392445573       -1.21717544585076        0.88576933122399
N            4.65965529802880       -2.05342856054794        1.33194501929891
C            3.89789152784578        1.06737527441604       -0.11036211739446
N            5.21212529463458        1.30263053129373       -0.08937943551200
H            5.84234698893604        0.59242545520363        0.24553572604474
H            5.58211617181661        2.18375371669583       -0.40068227853465
C            2.89456144382374        1.98297978442201       -0.51573578462970
H            3.06379343780612        2.99251590517912       -0.83432206978288
N           -3.83069837596115        2.18160089686813        0.67471038260781
H           -3.50238747901176        3.12637666381711        0.78145863086094
H           -4.81708750725965        1.98675689428586        0.71105780037597
