30
 energy: -61.303574041340 gnorm: 0.000751060536 xtb: 6.6.1 (8d0f1dd)
N            6.14127153241220        0.72451970226432        0.69216985795334
C            5.03927299960530        0.49976291732500        0.47557522362630
C            3.67314133835800        0.22235214716704        0.21181394668956
C            3.28282891589538       -1.10265497226072        0.28378461031073
C            2.02651742557288       -1.65820056715710        0.00793248026799
C            2.07957260721557       -3.08035247334369       -0.00538137576010
N            2.20296303048827       -4.21982275624693       -0.00922567233354
C            0.75893258460553       -1.06161432594261       -0.15862241318108
C           -0.32816952594466       -1.93796966069745       -0.33570648741922
C           -1.62160646422833       -1.48524452193127       -0.24858634194597
C           -1.88413349667719       -0.07643833110336        0.06102606817805
C           -3.25538420217726        0.02487170224241        0.18112359962182
C           -4.09178662510651        1.09808426132435        0.47343348524210
N           -4.86313768311927        1.91791460262383        0.70633017500196
C           -3.74713288022462       -1.32801587601814       -0.08970687382647
N           -2.76472322747765       -2.18796147621745       -0.33592040239863
N           -5.02971034137368       -1.67221694277139       -0.09390681013122
H           -5.27843547344661       -2.62582906029809       -0.29724780377699
H           -5.74335857005851       -0.98932498596775        0.09962626242518
C           -0.80360759809991        0.82608043964500        0.11394763900453
C           -1.10334743884273        2.16473173668971        0.46034145937659
N           -1.41484251742084        3.19528750905857        0.85476364696210
C            0.50267834575655        0.37962384123126       -0.08109584893609
C            1.51399165368980        1.37191742950976       -0.31688194748184
C            1.06761110747262        2.61200066804285       -0.85607662748025
N            0.81948048446130        3.58258479917251       -1.41249376348281
C            2.88152336550518        1.31925619387512       -0.17786383035825
H            3.41715878292494        2.24153595109333       -0.37277577977004
H           -0.15135504385117       -2.99221102563403       -0.48083499855672
H            4.06148612903557       -1.81714089456981        0.52842036428486
