32
 energy: -59.956775712967 gnorm: 0.000366675672 xtb: 6.6.1 (8d0f1dd)
N            5.99300927517270        0.13442164928957        0.00603322637441
C            4.84699873609674        0.06263743034974        0.00541221343285
C            3.43548649572675       -0.02248045039895        0.00259727645274
C            2.93213719049235       -1.32475511093872        0.00166819077974
C            1.62606637416893       -1.77452342310125       -0.00050242877858
C            1.56392202637459       -3.19402599212750       -0.00103380569533
N            1.59340793802929       -4.34088228454184       -0.00110846224263
C            0.38292052347896       -1.07359956471377       -0.00217520723015
C           -0.76065404186202       -1.85312060997634       -0.00407191304349
C           -2.04028894572675       -1.30036779895250       -0.00558230269748
C           -2.16828433603889        0.16051237895718       -0.00509077956938
C           -1.04137498456242        0.94625509105917       -0.00337051368319
C            0.25566067068604        0.39877513283879       -0.00197582550877
C            1.30990244968885        1.33290961682005       -0.00059470901627
C            0.91932036408110        2.69911213954615       -0.00111551688317
N            0.70656165657402        3.82820528677503       -0.00175388207069
C            2.72973170890798        1.19780042540471        0.00146361425369
N            3.47230695644133        2.33044470691122        0.00256690017046
H            4.47638532866783        2.26907815778675        0.00404287232552
H            3.03904931470965        3.23763304884709        0.00187779089215
H           -1.16223785864565        2.01977437483004       -0.00310055588851
C           -3.54222105141372        0.46268408732727       -0.00642652670970
C           -4.14953057514270        1.71451223342719       -0.00566614774459
N           -4.69870941949271        2.72608975516619       -0.00807098468519
C           -4.24248276309200       -0.77398824159492       -0.00809924380569
N           -5.57463672194252       -0.90003604333797       -0.00978266177565
H           -6.00537521197625       -1.80785694601558       -0.01079363348128
H           -6.15585636242555       -0.07843020601077       -0.01009462449199
C           -3.30495762345659       -1.84612443953917       -0.00744829851269
H           -3.56073924382106       -2.88833151915763       -0.00820423384027
H           -0.66522544120560       -2.92913196991606       -0.00432247594623
H            3.69071202650720       -2.10048415271316        0.00279682011933
