34
 energy: -57.784147378647 gnorm: 0.000412051676 xtb: 6.6.1 (8d0f1dd)
N           -3.72830460082708       -3.51374505363139        1.24359341058722
C           -3.19378999705503       -2.56345898522153        0.88107461381254
C           -2.51761738773549       -1.41155771865760        0.42585427390618
C           -3.23981875942073       -0.25578601961812        0.33849026527582
C           -2.80510918212523        1.00096303501874       -0.14847062933868
C           -3.83394174296906        1.92759108242751       -0.39544188269557
N           -4.66361161185069        2.69781372609094       -0.60720522950181
C           -1.49258391715106        1.44218604530247       -0.36780914286517
N           -1.35352716767987        2.68948483282566       -0.86612023388007
H           -0.44753695952342        3.04152344286898       -1.11676859744422
H           -2.17221280351164        3.23526019877116       -1.08121279946880
C           -0.26402317320387        0.73627345618012       -0.07967879133095
C            0.87002052567714        1.47458316233142        0.19056835474548
C            2.12380968608642        0.87106126174468        0.27807731817821
C            2.26650582245440       -0.52352567006616       -0.09457813319894
C            3.67092484399461       -0.82327263274336       -0.05358239190555
N            4.22898289024566       -2.06311373098006       -0.34142126425331
H            3.74488929498894       -2.84093480138780        0.08698605466098
H            5.22159092871938       -2.09612702792968       -0.15023984057372
C            4.33970027498641        0.32741614158945        0.30093462689164
C            3.40551903823171        1.37604641572255        0.50516708690622
N            3.73950823631729        2.67711707647947        0.80005303282253
H            4.66121160759492        2.81458037925369        1.18342662272310
H            3.02139295556359        3.22827453327693        1.24245744487168
H            5.40476921556210        0.42678056631603        0.41467708006184
C            1.17353587535756       -1.26981709812828       -0.44246091864154
N            1.30319669030313       -2.54500194834885       -0.92732816507785
H            0.52295259540899       -2.92629912875278       -1.43734476671996
H            2.20964912982811       -2.76333869013186       -1.31055167336566
C           -0.15783187468569       -0.72259020465147       -0.18517071944790
C           -1.15127461680968       -1.62555744746888        0.04355222040367
H           -0.88074195441889       -2.67429698746721        0.02568754599413
H            0.79728207814144        2.53942222514576        0.36645710183925
H           -4.28935617899829       -0.30755026033743        0.60635837860228
