23
 energy: -49.630018838083 gnorm: 0.000500492827 xtb: 6.6.1 (8d0f1dd)
N            2.99127541580299        3.80146947230360       -0.92120528546638
C            2.61701042263786        2.75740391727600       -0.62762730670435
C            2.18812303033455        1.47190660163832       -0.27538627072231
C            0.88630005731022        1.06203270265830       -0.04066056472916
N           -0.24505970937196        1.75658060287308        0.00697866848851
C           -1.36035246968021        1.10923489461415        0.13794097389748
N           -2.42181036776370        1.60025089310795        0.75166789397039
C           -3.65025001298245        1.17292511074068        0.77144075869385
N           -4.29075833977615        0.42838533549746       -0.12548962309355
C           -3.65125654799738       -0.40901203664868       -0.89629718466690
N           -2.47085327061134       -0.93177307697212       -0.61572477019459
C           -1.42927669725171       -0.39064655551345       -0.10213350453078
C           -0.23067620979051       -1.13108716234924        0.19096802608826
C           -0.27977608912389       -2.54482686610896        0.21229031536166
N           -0.35896536858996       -3.68600426043223        0.25995935576092
C            0.93162931985718       -0.40334574536943        0.23115944165190
C            2.31406156185325       -0.78004903591121        0.22730837613968
C            2.80954472229893       -2.06467106456449        0.49108433248169
N            3.22209103409247       -3.11277712433873        0.70738722800955
C            3.05371406462297        0.34402460221324       -0.07960151811315
H            4.12449247376449        0.38320286148349       -0.17112687373740
H           -4.19192598588953       -0.86754821331288       -1.71434042139487
H           -4.26551512004808        1.56996748480971        1.57202756971355
