32
 energy: -65.533704868927 gnorm: 0.000556226348 xtb: 6.6.1 (8d0f1dd)
N           -6.19843854861580       -1.03944004774639       -0.03108351876726
C           -5.07539401797224       -0.81554821472964       -0.02577912008462
C           -3.68387348730454       -0.53529697747506       -0.01668580289989
C           -3.31192867637237        0.75098077186896       -0.41317331661090
C           -2.05890431433242        1.34160572616576       -0.32811516756667
C           -2.06873716193574        2.68324820470792       -0.80551377302736
N           -2.15725999408043        3.70829332145166       -1.31005612845982
C           -0.79513176799740        0.80515454536967        0.03586567437268
C            0.25394870475561        1.69566732612835        0.30724595643668
C            0.03047648855484        3.04485489889018        0.66415999576798
N           -0.05390139144846        4.11397961200906        1.07103792865873
C            1.59010318056996        1.26501658369844        0.28767727090700
C            1.88356700735010       -0.12456194384103       -0.09565588659091
C            0.83475369063205       -1.04015954787805       -0.20421405155953
C            1.14282516975134       -2.36260377876047       -0.60232764541115
N            1.43244301339322       -3.37872735677840       -1.04713295845027
C           -0.49852239380817       -0.63463529365329        0.01313958646587
C           -1.45674342131384       -1.62711203020313        0.32830884200435
C           -0.96162014249694       -2.87631030020907        0.80193346045657
N           -0.67252658855924       -3.86148039528787        1.31054533165819
C           -2.84702573618809       -1.57337234636679        0.38486112797943
H           -3.33705061749797       -2.48077421746772        0.71878667336552
C            3.26643161672596       -0.24913148107249       -0.17873174468852
C            4.04785194297606       -1.35724584016816       -0.51063840297724
N            4.77074411297831       -2.21094517715776       -0.77314576429841
C            3.83075756402876        1.02628731870408        0.17631347639634
C            2.78294611591479        1.93382314738039        0.46240548407346
H            2.90456450506876        2.96141355777940        0.74495664450040
N            5.13623595242083        1.28129471474627        0.21746645746129
H            5.79875691189199        0.55819501983211       -0.01520694724166
H            5.47549559589341        2.19158321284328        0.47943398551079
H           -4.11162207199660        1.39142903491124       -0.76709290576559
