30
 energy: -50.106940521626 gnorm: 0.000578601900 xtb: 6.6.1 (8d0f1dd)
N           -4.33168598479970       -2.09209537172251       -0.13865596793526
C           -3.42845316544050       -1.37690458244222       -0.09390107291672
C           -2.33282283868697       -0.50034013011661       -0.04493912219184
C           -2.60570542543550        0.84156686167085       -0.42087318072902
C           -1.80600540539172        1.93267624441325       -0.10844559593122
C           -0.48788283103905        1.97698285531795        0.33893977187006
N           -0.07435639136047        3.17591322893937        0.81380387796416
H            0.84782478214850        3.29058991611649        1.19144634494889
H           -0.70223657925153        3.95906147728394        0.82510728970415
C            0.49416695909436        0.93621866816743        0.22362728330953
C            1.82239160650934        1.34268025213353        0.07353323847439
C            2.84795045821071        0.43249562566640       -0.08551407542860
C            2.54264070812193       -0.99234606048144       -0.07989558035062
C            3.77591652245778       -1.62060961553230       -0.28936990928008
N            4.76127298494286       -0.72426311436813       -0.39994195894915
C            4.22913824941148        0.49875362345167       -0.29602465634496
H            4.85068568131935        1.37348107818916       -0.36029585536208
H            3.98378636366363       -2.67372128623116       -0.34674185690883
C            1.23752882197679       -1.40178719973552        0.09626568219728
C            0.19109606902586       -0.48451784880831        0.24246006222240
C           -1.11720766668971       -1.04340323342072        0.41866939961299
N           -1.20051425198229       -2.25970246033225        1.00027390926799
H           -2.07518512394864       -2.75762766106031        1.00391078484971
H           -0.37206905248666       -2.73016535477624        1.31721729648378
H            1.02713550824589       -2.46138334253809        0.02987247698832
H            2.06410415049490        2.39408341350576       -0.00770141152240
H           -2.29132428706822        2.89757466878134       -0.20842595646751
N           -3.80615440334084        1.08557471524196       -1.00075257366398
H           -4.47314499488184        0.34157354742482       -1.11407995293094
H           -4.10622131881916        2.02954444996227       -1.16244130438013
