26
 energy: -53.590125844507 gnorm: 0.000705978659 xtb: 6.6.1 (8d0f1dd)
N            5.54733886932177        0.43523152380443       -0.48187024111955
C            4.42065247119266        0.29651012679293       -0.33087626002874
C            3.02364167550470        0.11773603662315       -0.15103223786670
C            2.57838822092100       -1.21880253954539       -0.09147876398539
C            1.29033222611126       -1.66967114600028        0.05070266191695
C            1.15426453325982       -3.08257255188502        0.17521505554498
N            1.10700646927597       -4.22217523795448        0.27167671054945
C            0.02973747008882       -0.98191924270037        0.03983043956331
N           -0.98937051356383       -1.80578071647679        0.09245111010897
C           -2.23459903340939       -1.37689027538208        0.12118339117425
C           -2.54847923122372        0.07178699123272        0.05878287989174
N           -3.86773140432557        0.24184506309221       -0.00399257152822
C           -4.41009556410738       -0.97352440673569       -0.00461199494191
C           -3.45873030563162       -2.01237779189223        0.00284252414614
H           -3.64598585289398       -3.06611114023473       -0.01230107222277
H           -5.47997495531912       -1.07938839672991       -0.00903398215465
C           -1.49280687169573        0.95263015076974       -0.09891444683069
C           -1.78918855648995        2.28108149598069       -0.49195775064444
N           -2.08766239580636        3.30986950593829       -0.89738004395675
C           -0.15410092793360        0.47363668132777       -0.01193720981427
C            0.88433107860176        1.40769311548912        0.16685533868782
C            0.53867338575013        2.71651970836170        0.60875617651675
N            0.38613115464781        3.75672980362842        1.06462148521446
C            2.27396324157109        1.26500663660667        0.03593083204885
H            2.83389594990997        2.19186285207087        0.10417243120505
H            3.35181814074436       -1.97695969007979       -0.13863073507337
