29
 energy: -61.574969727126 gnorm: 0.000696360181 xtb: 6.6.1 (8d0f1dd)
N           -6.15712758724762       -0.60875130695829       -0.60979973329172
C           -5.04539061955152       -0.41519913053212       -0.41478410945547
C           -3.66500082603167       -0.18111166679907       -0.17886713489342
C           -3.24114914466132        1.13582624969712       -0.23490471250891
C           -1.95858985716657        1.63393715086308        0.00173474101473
C           -1.87564619872382        3.05592856238586        0.02451583752844
N           -1.89809576122847        4.20063818200742        0.03361606350554
C           -0.71450694720198        0.98203671763005        0.13699911674624
N            0.28740626781260        1.85503588227257        0.27888807794733
C            1.52310689653491        1.43606989376847        0.22025634889714
C            1.86950499326697        0.01954738500576       -0.05486660063205
C            3.24400132671824       -0.00181268311498       -0.15618955910336
C            4.13916173160069       -1.03506511101157       -0.42249492232310
N            4.94051564114292       -1.83060148058092       -0.63607507962103
C            3.65092852125743        1.37893722407170        0.09819815821397
N            2.61562824350922        2.19260332085229        0.31514854811518
N            4.90435599673999        1.80506094380523        0.11692164823798
H            5.66744904257478        1.17146922750617       -0.05847182419535
H            5.08352876197039        2.77799420424265        0.30620685708199
C            0.82127595758265       -0.91339129840803       -0.09764982039991
C            1.15273814635278       -2.25493076587561       -0.40395554553284
N            1.50187490487670       -3.28764330861965       -0.75860870072097
C           -0.49338663587805       -0.46435267104949        0.07629022789174
C           -1.53306599854632       -1.42752429705899        0.28436349868771
C           -1.13674870455344       -2.70978743500542        0.76180436805599
N           -0.92657751015340       -3.71992201567287        1.25997886946811
C           -2.90035657859604       -1.31386534110149        0.15952485695480
H           -3.46554644631725       -2.22446042639630        0.32659311611827
H           -4.00190551048295        1.88024000587665       -0.44224525498705
