29
 energy: -56.001192164193 gnorm: 0.000836880034 xtb: 6.6.1 (8d0f1dd)
N            5.90496928178618        0.86603779182266       -0.68410135923622
C            4.80492724655972        0.62078435028635       -0.46391517281163
C            3.44773846630069        0.36624311567605       -0.18019604841623
C            2.63753672811659        1.50721942148399        0.19594424443913
N            1.34294568660290        1.59037635977668        0.15986804667465
C            0.35863312882465        0.69994864650796        0.03625764055123
C           -0.90079540470656        1.25667680658967       -0.13480235280917
C           -2.03798088094991        0.46471713805558       -0.08387923496990
C           -1.91230846267434       -0.97628292611781        0.19208841057458
N           -3.11372951334488       -1.56995027185018        0.26576430042505
C           -4.01349018888443       -0.60599656203344        0.05253031704740
N           -5.32302215351441       -0.84548481214186        0.05065305445486
H           -5.64631942553302       -1.78441977832248        0.20981189940161
H           -5.97975817854289       -0.10075480150532       -0.10959244200572
C           -3.40633119633865        0.69373351487532       -0.16939472917149
C           -4.11306549818989        1.86448958156448       -0.40504023632442
N           -4.74300139461065        2.80962022057493       -0.59332370329002
C           -0.66638617128700       -1.55072000901679        0.30571348025643
C            0.49067421017485       -0.77546003529212        0.15327767809282
C            1.71781530194967       -1.44383447099708        0.00097852709889
C            1.69740232075588       -2.86366282794149        0.00323965304994
N            1.75120441665021       -4.00923589494794        0.00541677235188
C            3.00434457309205       -0.93224647983936       -0.25381124896561
H            3.75235460105421       -1.67695087408150       -0.50607599889799
H           -0.58738780583590       -2.61587577206215        0.46217571698692
H           -0.97527726680871        2.32622409125094       -0.25674208507436
N            3.28683059933480        2.63298965260662        0.56500269605762
H            4.28652352590579        2.70688979831433        0.49007413303797
H            2.73747187611590        3.45551317776301        0.74380862507191
