30
 energy: -61.295399740756 gnorm: 0.000803448172 xtb: 6.6.1 (8d0f1dd)
N           -5.95951217862933       -0.78516847656196        0.00029941864847
C           -4.82325101191903       -0.62603174482195       -0.00269223996422
C           -3.42231543275011       -0.41893358347436       -0.00056019942995
C           -2.66111745777253       -1.60063452641498        0.00054390446575
C           -1.30013881430150       -1.76298916140052        0.00085927240502
C           -0.85357161086796       -3.11379839690478        0.00180861532211
N           -0.57058906808405       -4.22343050031369        0.00238454780136
C           -0.23380987259995       -0.79970577601302        0.00021319479426
N            0.94850975385321       -1.37256387773157        0.00004912111233
C            2.04812932398144       -0.62958268627657       -0.00007136182915
C            1.98912622274839        0.82709502874549        0.00025137409790
C            3.35781666322044        1.30491612379434        0.00020315290995
C            3.72182206969918        2.65446994005748        0.00032395079532
N            3.98718843272794        3.77173206497577        0.00139574060272
C            4.17823930146533        0.20499982888301       -0.00016901842861
C            3.39063139620949       -0.99914660925229       -0.00047264764314
C            3.91882878282483       -2.29200965083499       -0.00117658894067
N            4.38406921123096       -3.34199207389985       -0.00150551399730
H            5.25339542425161        0.21850817742713       -0.00033533504374
C            0.78204118078704        1.44215460135865        0.00024215465289
C           -0.41786480864314        0.65249806041379        0.00006741647510
C           -1.62217165840459        1.35631195517598       -0.00038794931267
C           -1.51509710350162        2.77468891076359       -0.00246485355138
N           -1.50635867421416        3.92229799997241        0.00168506624659
C           -2.99316327459612        0.91897599160657       -0.00120045917312
N           -3.94290395579320        1.87584003269604       -0.00265924427835
H           -3.70375720101041        2.85347774989610       -0.00302080780588
H           -4.91603418469691        1.61612814833521       -0.00307239392351
H            0.71243295274788        2.52110862022398        0.00026332915308
H           -3.24564308126311       -2.51420612612499        0.00090471493885
