30
 energy: -60.509616280521 gnorm: 0.000889501813 xtb: 6.6.1 (8d0f1dd)
N           -5.77386393565626       -0.26942322278678        0.66840431332282
C           -4.64881716553028       -0.16832249935813        0.46549063129071
C           -3.26900532220641       -0.08996599835898        0.18529915609025
C           -2.64946852644151       -1.27779776818351       -0.36737287728496
N           -1.39020261713966       -1.57032166161898       -0.26493637462248
C           -0.29093001120291       -0.87477026689560       -0.01798787018479
C            0.85365955841208       -1.62474336739331        0.27119383122145
C            0.73495709991938       -3.01086164300514        0.49143295362989
N            0.66070851831911       -4.13973330900652        0.68505420840071
C            2.12391115303685       -1.02360094475690        0.23656161564312
C            2.23774634643583        0.38640500721246       -0.20318261151268
N            3.51047611874369        0.75073559280876       -0.31308173457536
C            4.23053187211438       -0.33527255487574        0.04378267512839
N            5.55965978451967       -0.28988151380209        0.04600942062536
H            6.00897263065609        0.56989702386797       -0.22198480777248
H            6.10865230132331       -1.09194714305455        0.30076508008041
C            3.41314920184172       -1.46202296947046        0.38564895911107
H            3.76093765379962       -2.43011523831569        0.68396246264518
C            1.09620074425325        1.15910799307405       -0.39672212123920
C            1.25441189114743        2.47704444963973       -0.87767760091207
N            1.42460868855316        3.50110644110569       -1.36509370301791
C           -0.17768914856952        0.59893533915852       -0.13591005248302
C           -1.26280593568646        1.42599950108848        0.17602667891967
C           -1.01763264873489        2.80031970551434        0.44665920487579
N           -0.93137716961702        3.89815319262631        0.76442987434153
C           -2.60915091057678        1.08607434322602        0.43952793846471
H           -3.20997510550515        1.89375311075451        0.84378391818666
N           -3.43880521980590       -2.19883834642099       -0.95078483632107
H           -3.01996381702630       -3.07230330539984       -1.22257022994227
H           -4.44066973086859       -2.12118222676966       -0.90863974371463
