31
 energy: -55.440085805753 gnorm: 0.000700896321 xtb: 6.6.1 (8d0f1dd)
N           -6.08267729283777       -0.46822503958012        0.03284182817109
C           -4.94782749097031       -0.29151074519008        0.01472226825742
C           -3.55568383991467       -0.05566827267998       -0.00061483341842
C           -2.75426857770916       -1.19980302993124       -0.00301537380791
C           -1.37608087459411       -1.32711046866897       -0.00775971312387
C           -0.98116456712554       -2.69232973399757       -0.01006473338914
N           -0.74784475619460       -3.81543807768081       -0.01290355672227
C           -0.33376219084774       -0.35490494309344       -0.00795857536922
C            0.97030485876183       -0.82539320661018       -0.00512721480233
C            2.05820533319052        0.03947055925655       -0.00474906113757
C            1.83535045969934        1.48886038227452       -0.00969634446852
C            3.08417108960567        2.12232308242072       -0.00910868033650
C            4.06512285221850        1.13631063366240       -0.00334178985949
N            5.39812181748969        1.30172073622056        0.00021233986394
H            5.80181107818493        2.22101260251529       -0.00375917905815
H            6.00242191327665        0.49808206902951        0.00342292936677
C            3.43154504877574       -0.16870109670704       -0.00033789699918
C            4.13656687927400       -1.36591954967124        0.00689434257428
N            4.77414886441824       -2.32514372707658        0.01093380763193
H            3.25915753834450        3.18112991525318       -0.01232971280685
C            0.54410925495044        1.96095535651977       -0.01247882842389
C           -0.57193102384985        1.10092901659387       -0.01067210491160
C           -1.80751341806074        1.73655221829406       -0.01155023639933
C           -3.13742453332535        1.29140213524650       -0.00789309111387
N           -4.10130393279517        2.25036425341191       -0.03350246571006
H           -5.07118350767673        1.99370329494069        0.03269876419818
H           -3.85489404692273        3.22034402147409        0.04234311218252
H           -1.73513712392573        2.82045046867365       -0.01613015226596
H            0.37343765506111        3.02867804877192       -0.01561219722453
H            1.15343128727471       -1.89056404228148       -0.00264647057756
H           -3.30434145477570       -2.13517441319050        0.00099306828005
