30
 energy: -61.298596117578 gnorm: 0.000397401910 xtb: 6.6.1 (8d0f1dd)
N           -6.18632937114391        0.01481166848086       -0.00155366780091
C           -5.03909459665952        0.01562356962227       -0.00010420250534
C           -3.62347394239080       -0.00689040465874       -0.00066252857654
C           -3.00765206605948        1.25423329437407       -0.00027734000894
C           -1.67207349662057        1.58251002385271       -0.00009246309857
C           -1.40011160172369        2.97965586621370        0.00024575059542
N           -1.25615393313829        4.11548758901883        0.00081290846031
C           -0.49680281170767        0.76370829712967       -0.00021538075121
N            0.61488543252505        1.46713315060677        0.00018034643537
C            1.78898807983455        0.85507971235186        0.00004724853075
C            1.91363103604682       -0.60943061374536       -0.00051632727650
C            3.31603756832460       -0.91253504219825       -0.00035299978000
C            3.87602865393451       -2.19543226310851       -0.00019249303034
N            4.33740634062125       -3.24640964106321       -0.00234217885707
C            3.99799555671752        0.28794256185172        0.00008014104910
C            3.07672034853669        1.38268333325447        0.00041451727059
C            3.44102965862859        2.73268851699656        0.00126551471119
N            3.77106682457142        3.83212320592437        0.00136049156269
H            5.06758205982010        0.39874954445683        0.00035333692504
C            0.77176697995231       -1.36204924287477       -0.00089715030947
C            0.83940239494023       -2.77666381363264       -0.00152682550539
N            0.87129370195145       -3.92263441847826       -0.00169480158715
C           -0.51869342825318       -0.70077051704874       -0.00077877008553
C           -1.61993838068003       -1.52373956463571       -0.00113410844798
C           -3.01590196313169       -1.27635754972955       -0.00104328712111
N           -3.80760124017115       -2.36746225159283       -0.00135275266346
H           -3.41134444979166       -3.29136673776534       -0.00167796861245
H           -4.80998751535451       -2.27273059722942       -0.00125764850446
H           -1.38730856424772       -2.58531294403686       -0.00147879898379
H           -3.69481650493115        2.09374158896341       -0.00002279423424
