23
 energy: -48.859348065182 gnorm: 0.000867156452 xtb: 6.6.1 (8d0f1dd)
N            0.09268961805090        3.97500091498492        0.69648726690103
C            0.11584589889360        2.84680770302446        0.49431922137663
C            0.12447497627722        1.45634571908397        0.26720690775247
C            1.31016049621922        0.72481744881367        0.18960429674810
N            2.56633155059757        1.11418284025097        0.29674536741889
C            3.28382017026811        0.00009042279455       -0.00583071903314
N            4.60448115284206        0.00017381750485       -0.00727160319993
H            5.09612653392946       -0.84746721983337       -0.23475349644072
H            5.09650691830942        0.84788577173120        0.21913532221778
N            2.56575429812534       -1.11406672700014       -0.30684758172413
C            1.30978229256817       -0.72480755147104       -0.19694753815244
C            0.12392372448491       -1.45633587789184       -0.27210250131809
C            0.11438629585523       -2.84673261252443       -0.49989032335069
N            0.09342425032174       -3.97500938949832       -0.70006293962205
C           -1.05489196072968       -0.75651779127158        0.03390059905614
N           -2.10832569330994       -1.31883812763438        0.55367778340065
C           -3.31769871745474       -0.85947449159508        0.75499071416218
N           -3.97531414947695       -0.00019058821146        0.00215663772389
C           -3.31943281050331        0.85915011352370       -0.75214048474570
N           -2.10966099336901        1.31865121910365       -0.55351532917911
C           -1.05502603085426        0.75646662007334       -0.03601467007519
H           -3.88975439539107        1.36622259188713       -1.52209050166739
H           -3.88626814105397       -1.36663235834467        1.52617300755070
