30
 energy: -55.707776910219 gnorm: 0.000863393489 xtb: 6.6.1 (8d0f1dd)
N            5.78597842659899        0.30025358755535       -0.22729030893002
C            4.63862012330709        0.26156165046690       -0.17605596921426
C            3.23326377901908        0.26129541043428       -0.09341747709498
C            2.60842732283856        1.49129039711159        0.26230965970774
N            1.35882137170656        1.81819646576127        0.00974677188631
C            0.26433056880893        1.12361725422056       -0.17680446300569
C           -0.87468131378571        1.88089028650025       -0.51478890341163
C           -2.13488171074937        1.35719005084432       -0.36569334906903
C           -2.29434389899480       -0.02001003737230        0.15273403783024
C           -3.62537341770981       -0.25404116102263        0.32368642048612
C           -4.33161408526520        0.93731395149695       -0.09223642505015
N           -5.66865442814317        1.05237868099522       -0.05890972391843
H           -6.23639344538212        0.27973049293131        0.24035205250714
H           -6.11750202212710        1.89268357254679       -0.37748781255280
C           -3.41653556393904        1.90126773786048       -0.50544392862553
H           -3.65072934260735        2.88628990781604       -0.85870386894404
H           -4.08907109512158       -1.15089954905183        0.68755312235960
C           -1.14924970354651       -0.84165148837097        0.30621245623536
C           -1.36680858049250       -2.15496461047906        0.77022336412488
N           -1.62483557105815       -3.17003998655396        1.24157983048613
C            0.11693771932025       -0.33959124159428        0.03485123638124
C            1.20755146900098       -1.21147660543820       -0.23755553825558
C            0.89854057819144       -2.55608419801586       -0.57052054382389
N            0.73508234964074       -3.63446101935699       -0.92638410266072
C            2.56233168387921       -0.92804701486638       -0.36795355325960
H            3.18830427607263       -1.76161861446475       -0.66676376794319
H           -0.72496014427008        2.91760783386206       -0.77499872578309
N            3.36195900614215        2.47610647832184        0.80079718521306
H            4.35967386660495        2.37455326710818        0.87232891520135
H            2.94260307155881        3.38077118105541        0.92439319682305
