31
 energy: -65.031972007775 gnorm: 0.000966094230 xtb: 6.6.1 (8d0f1dd)
N           -5.94725340254654       -1.23925215467832        0.73836719541467
C           -4.87008174738858       -0.91109253487127        0.51857047944947
C           -3.54029307629087       -0.55154044694091        0.21149734183410
C           -2.71208604368210       -1.57727036473381       -0.39297793745561
N           -1.41764831418800       -1.61419422191675       -0.30911787576363
C           -0.47299439225305       -0.72425020255195       -0.06248681179640
C            0.80545303423072       -1.24832233584017        0.18573592334808
C            0.94300088136698       -2.64061963109662        0.36918691859169
N            1.04612772850099       -3.77187304995431        0.52513849989727
C            1.92426620512259       -0.40982974614068        0.14545830976240
C            1.75750222922393        1.00242372649062       -0.24343838222011
N            2.93438391208362        1.61878773707389       -0.36313925239539
C            3.86599822079617        0.70406069180005       -0.06269048490989
N            5.16098587567590        0.98875743324127       -0.07256378724677
H            5.44966454866908        1.92339606976468       -0.31073807852658
H            5.84362217171641        0.28296652112640        0.14960798710710
C            3.29268743258026       -0.59186774884389        0.25709771520709
C            4.04445716569880       -1.71483037503243        0.58974837102050
N            4.73518139714394       -2.59358951971374        0.85845705371537
C            0.48694789000488        1.54670215107860       -0.39630892168668
C            0.38463118685021        2.88486283427977       -0.83662554034397
N            0.35245568071949        3.93695098321608       -1.29063098547614
C           -0.65127293377416        0.74223057596382       -0.14041314498098
C           -1.87241826671075        1.33165554298910        0.20569056156812
C           -1.90027539587090        2.72260476857184        0.50204353186846
N           -2.02779911602410        3.81125561675919        0.83641887729743
C           -3.11902249491484        0.72474684837184        0.48533562681537
H           -3.85703565754231        1.38804412051409        0.92397289535650
N           -3.31124774486168       -2.61653701729564       -0.99645706688105
H           -2.73250052158751       -3.37668152600041       -1.31322241627690
H           -4.30938168864079       -2.73522549833512       -0.95581344919527
