26
 energy: -47.216933180051 gnorm: 0.000571435008 xtb: 6.6.1 (8d0f1dd)
N           -1.25181036584793       -3.25760575343707        1.31822595595750
C           -1.18973339979370       -2.17669820343826        0.93740283747123
C           -1.06641763925388       -0.85067241188239        0.48029601765625
C           -2.16903937122741       -0.03528110368891        0.26298057425746
N           -3.45866268638454       -0.30043968376412        0.45188537896437
C           -4.11816258627904        0.79240886503379        0.02336541484893
C           -3.29088295554245        1.80967749856240       -0.45408046678212
C           -1.99095386761452        1.32669245688105       -0.32654654599904
C           -0.72913964235307        1.85262379968725       -0.51649217224787
C            0.39256813605544        1.09195176746317       -0.17752278265016
N            1.53407011608049        1.71625997759966        0.00489921950805
C            2.74456792054182        1.24925723329315        0.27456073030843
N            3.58661900047308        2.17193788710575        0.80537524901267
H            3.25680270225292        3.11789222419846        0.87943532473102
H            4.57132670178950        1.99189250576440        0.86920552178205
C            3.24584676024927       -0.02157999904190       -0.05145316566407
C            2.44636186487826       -1.11947424496641       -0.37150793264927
N            1.15335260883405       -1.25606874526999       -0.07922703930792
C            0.21837764621938       -0.37300518015320        0.10982409066404
N            2.99939567801822       -2.22961224520737       -0.92175697166884
H            3.99754071433680       -2.33594537869581       -0.94970466913875
H            2.42913499807732       -3.05830457027658       -0.93825889797529
H            4.32003903957108       -0.15431809310354       -0.05866892763912
H           -0.58615938594649        2.87774926216444       -0.82412943426785
H           -3.60097450955863        2.76170573552787       -0.83623578684222
H           -5.19337777977639        0.80901061874443        0.07688094687095
