31
 energy: -54.625455925043 gnorm: 0.000740638959 xtb: 6.6.1 (8d0f1dd)
N            3.91541861498874        3.20449891662847       -1.19924149528618
C            3.27510936686922        2.31808039118882       -0.84837096434587
C            2.46738986536939        1.24688379129226       -0.40686150427071
C            3.05313674824055        0.01117724100868       -0.33247075798202
C            2.47937592384665       -1.18930997527883        0.13537775077134
C            3.39209532680688       -2.24025548643544        0.34886161225490
N            4.12460904188658       -3.10898980188825        0.53176859284015
C            1.12255047392760       -1.47691690247783        0.36467964120168
N            0.84439760588516       -2.70392175304511        0.84576350201596
H            1.59319758802329       -3.35341931489348        1.02783585565449
H           -0.09747451225331       -2.96172607543435        1.07980435655441
C           -0.01640973362509       -0.62736057605756        0.10058185803791
C           -1.22521186054741       -1.22902709479410       -0.18442552824681
C           -2.39926798894081       -0.48001678715107       -0.23256532635235
C           -2.38602926442937        0.90180337555210        0.20133643933006
C           -3.75093905616589        1.29331188012945        0.19186087077670
N           -4.53489029846842        0.31260755458056       -0.20972055024307
C           -3.74632315311962       -0.76896031271016       -0.46913427845565
N           -4.31484203214824       -1.95907508750435       -0.83150824009243
H           -3.74831247561723       -2.58829504444179       -1.37655444499329
H           -5.27756357219938       -1.88277023422293       -1.11953355907315
H           -4.17011811059372        2.25193214799087        0.43997386584111
C           -1.20184432884313        1.53682642748219        0.50503938730287
N           -1.19190335886549        2.80695953121417        0.96650715712496
H           -2.07196626540605        3.26188527857365        1.13028510841183
H           -0.36268955850422        3.22024048450799        1.35227267886231
C            0.04821644642585        0.83586952010645        0.22907280810421
C            1.14232203276982        1.61400954644639       -0.01584000417279
H            0.99994257176778        2.68794049468496        0.00332702265952
H           -1.27650027872012       -2.28876220033044       -0.39433501672579
H            4.10207379143945       -0.05162677872155       -0.60049751700444
