27
 energy: -53.328448761103 gnorm: 0.000570084130 xtb: 6.6.1 (8d0f1dd)
N           -4.18930230497765       -3.19867971227877       -0.68418490250771
C           -3.63480844272162       -2.21305118765930       -0.48557780174158
C           -2.91970422497284       -1.03705983877981       -0.23855591772614
C           -3.41119294558021        0.22358402909326       -0.01142012092267
C           -2.32100159152001        1.13467552117088        0.21063401258503
C           -2.49614646654900        2.49888839497731        0.47152267609390
N           -2.69035974975807        3.60960597929857        0.68573818181656
C           -1.13426074681803        0.42263867262383        0.11136693965628
C           -1.47584954430832       -0.96570019459138       -0.16690895552590
C           -0.52087265265594       -1.92164849740220       -0.26116859128919
C            0.85629392016547       -1.58718703352329       -0.04602684758216
C            1.70076599488654       -2.63632274853663        0.23306434490663
C            3.03031545459853       -2.55969163992314        0.73591764798804
N            3.90748057081523       -1.64152823573274        0.53370038678557
C            3.73484768147711       -0.49676808158342       -0.12399460363232
C            2.57757067615399        0.23964991299639       -0.26700217349037
C            2.76961256493475        1.50776746964898       -0.87436168066670
N            2.99478409733919        2.46102364063431       -1.46973246666389
C            1.22298623489485       -0.16832965307098        0.01533031042460
C            0.22956682882084        0.79159914323006        0.16147089440698
C            0.55068194108003        2.14367052491448        0.43218001987974
N            0.76984393224379        3.22242964455607        0.75084730082209
H            4.66160146934479       -0.05302558921914       -0.47110915641777
H            3.37987673271279       -3.40390619095459        1.32193166274909
H            1.27032941107196       -3.62983045284370        0.19836753704784
H           -0.78707916308086       -2.95790056696719       -0.41351384580406
H           -4.44726906700136        0.50941906194444        0.00400127680393
