31
 energy: -60.235482246289 gnorm: 0.000785403528 xtb: 6.6.1 (8d0f1dd)
N           -5.98438676088009       -1.17535672765513       -0.32468448300293
C           -4.86883361379331       -0.91434471133701       -0.24530791504070
C           -3.49320887736305       -0.63610712708715       -0.12044782025026
C           -2.65657938710681       -1.70396405963883        0.32245313394106
N           -1.36157001737917       -1.79013948072239        0.10538819457235
C           -0.41636553306976       -0.91047540848999       -0.09857697049140
C            0.85679010033191       -1.45442386702789       -0.37990309898785
C            1.98051802888425       -0.68690262740104       -0.23709788696405
C            1.87248428835629        0.71377326123597        0.20370767674995
C            3.13587531456503        1.21256317595527        0.37869395954832
C            4.06895259808270        0.17615457856915        0.04651480108816
N            5.39922948649492        0.29729132951691        0.09136168497521
H            5.98514384185768       -0.48075846406021       -0.16235385978797
H            5.82619822328620        1.16541631830343        0.36394454691076
C            3.35926236871299       -0.98574665761938       -0.32927643334402
C            3.93713769395827       -2.19569295531095       -0.70328689041249
N            4.44477817741380       -3.18333237723733       -1.00554340559929
H            3.40175714056520        2.20199959012877        0.69846823318869
C            0.59218285478855        1.30787238114001        0.30476208656139
C            0.54737562266183        2.65794874895992        0.71100436018449
N            0.60154155138276        3.72255262097684        1.13711650901549
C           -0.55218401157938        0.55950317976088        0.04380298290378
C           -1.78211568955732        1.19311736747294       -0.28129157156061
C           -1.73315495153539        2.56192029137840       -0.65621976894598
N           -1.77419579735853        3.63977136555872       -1.04546793059444
C           -3.05332164433424        0.64565962199599       -0.43334865106472
H           -3.81646729360203        1.33046069432010       -0.78639031998842
H            0.91905470568014       -2.51052038589595       -0.59289432033898
N           -3.21880354035490       -2.78291702062890        0.90291582089790
H           -2.63515256336524       -3.57769865820295        1.10055795818941
H           -4.21858439284507       -2.86891972585399        0.96957694394968
