21
 energy: -40.601176545792 gnorm: 0.000700191349 xtb: 6.6.1 (8d0f1dd)
N           -0.78102566493374       -3.57087681292558        0.00021175709656
C           -0.67870214568835       -2.43006557388224        0.00001013275178
C           -0.58495933633712       -1.01815797589399        0.00168674554059
C           -1.70967591099507       -0.21302728008950        0.00362229004288
N           -3.02105374383894       -0.44972710561229        0.00361322105590
C           -3.56175328464878        0.77470599978486        0.00195621969192
N           -2.73072591739760        1.82358320793962       -0.00062633660396
C           -1.52167225004694        1.26954703263301        0.00109718934942
N           -0.34664699445345        1.85474336621669       -0.00088509620804
C            0.74541673828309        1.09177191659090       -0.00043121319447
C            1.93107818560304        1.83979926483579        0.00194149944666
C            3.25567793390173        1.43243580063311        0.00280165338679
C            3.74134762302288        0.13542253139556        0.00003159984236
C            2.99158539347065       -1.04659543809715       -0.00263190455417
N            1.70201092661434       -1.24432591485122       -0.00124839389770
C            0.68941414530189       -0.39201952096573       -0.00038051599297
H            3.55147306518792       -1.97788110348230       -0.00484400534600
H            4.81645368906465        0.01206593499026        0.00059989115779
H            3.99338431307117        2.22472764762579        0.00522483982347
H            1.74302985480447        2.90687799583002        0.00402849352417
H           -4.62818034798583        0.90965830702435        0.00230629308699
