28
 energy: -51.448394392639 gnorm: 0.000558660392 xtb: 6.6.1 (8d0f1dd)
N            0.48755054955209        4.00406464029097       -0.60516258877094
C            0.68356549985384        2.89845670281325       -0.36144055649683
C            0.99851624040244        1.55350551847362       -0.05918369353787
C            2.38217759307533        1.26001165135817        0.06686019790049
C            2.95268617494095        0.00103132270854        0.21913754652749
C            2.38113970009249       -1.26895261767802        0.12019970859857
N            3.23200598867485       -2.32659552174315        0.18614757354156
H            2.88276762547834       -3.25892110610161        0.04479298682508
H            4.22457551097343       -2.17907935664557        0.17906122770525
C            1.00972114010517       -1.56610211707931       -0.04865657452784
C            0.70932869674916       -2.90957702979065       -0.36751696514452
N            0.53045545358160       -4.01635962393283       -0.61998129499193
C           -0.13347397220481       -0.74250013412642        0.07627460183479
N           -1.28808070640869       -1.37895506678669       -0.00495808568221
C           -2.43591623284956       -0.74756237022441       -0.08287784176021
C           -2.43170131324111        0.76028541281914        0.00114606157405
N           -1.29209881920818        1.37789763029528        0.12430394872751
C           -0.13022323183639        0.73084336750212        0.11008839558839
C           -3.75712575029029        1.16170982840504        0.13596134019469
C           -4.54152970760294        0.01367017665028        0.09734442543902
C           -3.74909902164541       -1.14879788895684        0.01637818312965
H           -4.10270034867863       -2.16114526346577        0.02186379737499
H           -5.61554074408955        0.00601544192143        0.16826602926957
H           -4.09936392119333        2.17527930167610        0.20904262839129
H            4.02997235444232        0.00306490556303        0.34324103521184
N            3.22919541501640        2.32076380488197        0.03827563403490
H            4.22073588086618        2.18314817335130        0.10130319178588
H            2.87094746564505        3.25415941581842       -0.06415133994072
