29
 energy: -55.992594271407 gnorm: 0.000876169316 xtb: 6.6.1 (8d0f1dd)
N            5.77147839258993        0.16669400993951        0.01153911298507
C            4.62405466754082        0.13629137081039        0.00557979454503
C            3.21023426116572        0.07560254397447        0.00391595097121
C            2.56148186786573        1.29727431968431        0.00128514933654
C            1.19761565273725        1.58190235494265       -0.00217176769041
C            0.89380840300896        2.97233723911822       -0.00297682856130
N            0.74477175414981        4.10817546513787       -0.00736217857430
C            0.06464140139849        0.74132805337557       -0.00408234020921
N           -1.07208757852941        1.43297851524287       -0.00740019234187
C           -2.22095977403325        0.79720841949265       -0.00955306550206
C           -2.31929397637937       -0.69152280405483       -0.00838022925155
C           -3.66365457295467       -0.96448127702216       -0.01130247466082
C           -4.29628049417024        0.31341669049642       -0.01402197312542
N           -5.60717843043624        0.55159859242225       -0.01732335779265
H           -5.91762888773504        1.50828693094209       -0.01899695499407
H           -6.27332348768301       -0.20012644097834       -0.01817034450703
N           -3.42221187098592        1.34928825155868       -0.01293610400231
H           -4.15694949547313       -1.91599848519049       -0.01153111105535
C           -1.12250714097385       -1.41514814723099       -0.00487560589334
C           -1.18713031711947       -2.82201251618889       -0.00407788816964
N           -1.27392093271143       -3.96828396860065       -0.00206220564363
C            0.11302846537361       -0.72898489013146       -0.00254332124660
C            1.26896434516957       -1.51494254481916        0.00095874733079
C            2.63124666425773       -1.22730992305022        0.00385448557878
N            3.48278995221269       -2.28251162598156        0.00684807855569
H            4.47779544687177       -2.13954048741859        0.00899406612146
H            3.12616743689065       -3.22115259878316        0.00691105903770
H            1.06037973987625       -2.58190757486360        0.00149336906978
H            3.20978457557611        2.16740583587605        0.00189921798948
