32
 energy: -64.741939491628 gnorm: 0.000665878726 xtb: 6.6.1 (8d0f1dd)
N           -6.01806002016443       -0.07612456210655       -0.65989330436273
C           -4.89340665452714        0.02379265687022       -0.45634375533693
C           -3.50400527013527        0.14052613992735       -0.20938680918642
C           -3.00542556364565        1.43515257496803       -0.25760198409722
C           -1.71315332764932        1.88758495298902       -0.03567646383960
C           -1.56810340979629        3.30185982380257       -0.01500557465410
N           -1.52255135051596        4.44650584759698       -0.00576481115158
C           -0.49409187879249        1.17917859557179        0.09337529371084
N            0.54724046842616        1.98014899263487        0.24527981476954
C            1.77404357164717        1.48617456117805        0.22327847788255
C            2.03747567517777        0.05247484222883       -0.04503320514554
C            3.41455315797974       -0.10711139738809       -0.13037736470746
C            4.16803998026926       -1.25314110731625       -0.38103818358613
N            4.86455420198874       -2.14661211951762       -0.57716204286850
C            4.00411602773505        1.18346323512711        0.11666387008139
N            5.31692839346620        1.40771659967070        0.12982015237918
H            5.95741437829157        0.64891823003742       -0.04205978078476
H            5.67950466237575        2.32946175821721        0.30405216082038
C            2.98417847057801        2.14040575180935        0.32423171484799
H            3.12877296804707        3.18508993144095        0.51240739140320
C            0.94095879240928       -0.80344118795187       -0.14220349011384
C            1.16500886736584       -2.14584685200899       -0.52677119428191
N            1.39368904941914       -3.18334927920805       -0.95959895309236
C           -0.36516152493824       -0.28593942505087        0.02865439019665
C           -1.41889560579591       -1.19935198077871        0.25157087836685
C           -1.03278434376051       -2.47582577076211        0.73853485518532
N           -0.84153409989186       -3.47517712229490        1.27174733549074
C           -2.82486421297050       -1.05974595989717        0.13301733938549
N           -3.58732449581164       -2.15579667688719        0.33040397224366
H           -4.58793422715766       -2.09859160243131        0.23995202563732
H           -3.16650969109198       -3.04377305035857        0.54798767768270
H           -3.73955709912774        2.20703522708934       -0.46181526878077
