27
 energy: -51.745091130560 gnorm: 0.000758120977 xtb: 6.6.1 (8d0f1dd)
N           -3.64651978876373       -3.28224471748340       -1.31189063497028
C           -3.27803707914984       -2.27240549132879       -0.90426724420482
C           -2.79835880416123       -1.05924664283366       -0.40938929309335
C           -1.40519492713231       -0.69613063994368       -0.34242676588653
C           -1.34933582101651        0.67875757617545        0.20746574098634
C           -2.65517680153017        1.05531425257391        0.50448679039908
C           -3.07805334108336        2.25258405275773        1.08516879081949
N           -3.45290486451657        3.22593087272804        1.56767477909012
C           -3.52694686753941       -0.00775813048305        0.10268077815201
H           -4.59805432191230        0.02429073807590        0.19950530290462
N           -0.21599382427493        1.35615861378576        0.31496269638600
C            0.91108557845798        0.74515307798078        0.03433827516567
N            1.95459376794816        1.48987802161688       -0.27695367179810
C            3.22849659661361        1.17959015035951       -0.40941187635857
N            3.96615594921126        2.12826932277405       -1.02835163025837
H            4.96698084557091        2.07338031977184       -1.06222524610144
H            3.50595860714854        2.98784476455205       -1.27210574670747
C            3.88828820230849        0.03891612267711        0.10501465371611
C            3.24315273612864       -1.13868926735278        0.45973042853852
N            3.90893082016759       -2.12469017339684        1.10278262929932
H            3.46209399861345       -3.01894626089522        1.19862833216056
H            4.89080103432451       -2.04274902536195        1.29260332309102
N            2.00499912003050       -1.48444384791912        0.07153594332493
C            0.96628754281778       -0.74558668909272       -0.13440232225477
C           -0.25608425574694       -1.39718513595023       -0.49902377112802
H           -0.23425458831085       -2.45058597856884       -0.73932547382909
H            4.96758434069636        0.06785396218105        0.17513891745731
