30
 energy: -55.707885359278 gnorm: 0.000892330831 xtb: 6.6.1 (8d0f1dd)
N            5.79792427161324       -0.06313433377001       -0.24608214071079
C            4.65880032337440        0.05244170927934       -0.15964842336615
C            3.25858364935918        0.21565120637384       -0.05455850275498
C            2.76362035759039        1.54543716262995       -0.12176475069829
C            1.43668419390704        1.91893855324852        0.07277048858227
C            0.22914802301702        1.21585685745091        0.15834649836340
C           -0.91582004890770        2.00313204288701        0.32210648713634
C           -2.18674915233793        1.46695226549193        0.23932473734796
C           -2.33866026294462        0.03524781108361       -0.08705038010932
N           -3.60802816292089       -0.29682431203533       -0.22717767980327
C           -4.31026467155964        0.84938402027911        0.01345703443781
N           -5.64488776546751        0.82164437874605       -0.04564782266184
H           -6.19430672068902        1.64123339810555        0.13896966892817
H           -6.09339005649397       -0.05296652586970       -0.25668835530005
C           -3.48121854625689        1.95668199701952        0.29808423341437
H           -3.80669830806378        2.95505873128353        0.51027590673060
C           -1.20284607422056       -0.77907051700262       -0.18145372965675
C           -1.41414382635874       -2.11335515709389       -0.59422640280547
N           -1.65562692797618       -3.14139759902419       -1.04289972908787
C            0.07900975212132       -0.24566788311143        0.03629226107508
C            1.15420163971600       -1.14799484303747        0.20942808391220
C            0.84930188391870       -2.49152673044899        0.56091873624912
N            0.74797692095604       -3.55624611597280        0.97541407822609
C            2.53302155606021       -0.94336801726912        0.16923898692799
H            3.12890893726617       -1.84067356000942        0.30044260086197
H           -0.80008218090608        3.06860802219567        0.46503429015408
H            1.30415707410407        2.99623024770659        0.11230268380108
N            3.66631017438597        2.53732238146422       -0.34963569614442
H            3.38319481374013        3.49896721771770       -0.29777701072208
H            4.64878878107322        2.32814582348023       -0.39113093732545
