23
 energy: -48.850263910086 gnorm: 0.000645534531 xtb: 6.6.1 (8d0f1dd)
N           -1.63124612766772       -3.66356899916914       -0.95059144552719
C           -1.36726117591747       -2.58783096647509       -0.65701892198993
C           -1.01616715474399       -1.26508326800889       -0.31546513204212
C           -1.95202994288703       -0.23588158042141       -0.27633111493983
N           -3.25283241376139       -0.23001959888047       -0.53428503345521
C           -3.64533760841971        1.01371738497581       -0.21110480766350
N           -2.71442281123854        1.85218925991590        0.24662307337412
C           -1.59355177930946        1.12926024583329        0.23804323103778
C           -0.28378413983835        1.47426749216167        0.52422451685408
C            0.10330663564223        2.77632765740749        0.89960870300977
N            0.44756201079981        3.82234256181550        1.21723000689545
C            0.70054140837286        0.48423599571017        0.26822800415282
N            1.91703014689914        0.83121117412538       -0.01629412135363
C            2.98877886909736        0.06158504248279       -0.23200289455938
N            3.91954285725563        0.55268785460823       -1.05239292864296
H            3.80274987089954        1.47237540344362       -1.44255638405515
H            4.80403907749435        0.07943062526270       -1.12249833875548
N            3.28299235310378       -1.05160963473704        0.44632917015200
C            2.34395925135674       -1.81747662137412        0.94218554618828
N            1.08437904924526       -1.89186869628068        0.58004078926826
C            0.28488304544086       -0.96175216921743        0.13471258160023
H            2.67267452970561       -2.58946710657803        1.62905080995221
H           -4.67022135912957        1.31874975829957       -0.31808000400065
