34
 energy: -57.781830713987 gnorm: 0.000389188194 xtb: 6.6.1 (8d0f1dd)
N           -4.11698073250677       -3.09339223218785       -1.30568445129187
C           -3.43443228158541       -2.25422920749277       -0.91833296725643
C           -2.58229138018336       -1.23847470707071       -0.43682305403965
C           -3.11267282033925        0.01868094074826       -0.30816813906764
C           -2.47639229388235        1.16723777089685        0.19924551028863
C           -3.33162030130537        2.24945525463212        0.47347543521687
N           -4.01802693524457        3.14630157073946        0.69981182356373
C           -1.09666180306442        1.38903713284895        0.39575218488172
N           -0.76466087493622        2.58502550569548        0.92853245789470
H            0.19755559621625        2.80825963406353        1.11471674149078
H           -1.48762605284559        3.23687133100327        1.18660227091846
C           -0.00865307725431        0.50632354556839        0.08002999564815
C            1.24278371651954        1.03278941481063       -0.24450751885406
N            1.41785274145246        2.36159038744440       -0.63772045183598
H            0.59912453993717        2.78662084790037       -1.05143205503745
H            2.22972148245308        2.46871490532535       -1.22959663282410
C            2.38847459059364        0.21502669531493       -0.17469553730692
C            2.27295159146882       -1.15972542566698        0.26770428658719
C            3.58557527190309       -1.70230129861238        0.31176566384712
C            4.46083785238738       -0.72153975971903       -0.07688260787412
C            3.74664357422201        0.47325612876704       -0.35837857762571
N            4.34744562265415        1.66605338020527       -0.75654273182110
H            4.00644592727222        2.48880843686492       -0.27759211632656
H            5.35674820813375        1.61424392965427       -0.71737378342603
H            5.53026152283376       -0.81665738752562       -0.14925235667333
H            3.85013796078289       -2.70830766780688        0.58229289775812
C            1.04427660048082       -1.72110168604492        0.52857950852201
N            0.94108440958343       -3.01518841351370        0.94434891014204
H            1.79888902830308       -3.48379493121920        1.17826146237057
H            0.11541523088452       -3.31892436748688        1.42955347009208
C           -0.15092623670304       -0.95476749003818        0.22662669919469
C           -1.27943150773469       -1.67204272453643       -0.04008843505247
H           -1.18697443155380       -2.75110296261077       -0.02229638014926
H           -4.16025034082928        0.14010627719453       -0.56076771717219
