29
 energy: -55.988130763997 gnorm: 0.000814821606 xtb: 6.6.1 (8d0f1dd)
N            5.73730783893695        0.28220390909378        0.62535308746637
C            4.60454699429148        0.24142386869677        0.43920109019692
C            3.21794386446763        0.24358390174945        0.18594837535528
C            2.64763775050223        1.48693985589236       -0.28874337122422
N            1.40890821373735        1.84579703103266       -0.15589135775360
C            0.27429916565485        1.18703638189276        0.06119905801014
C           -0.82608618716381        1.96799796738807        0.37632227505132
C           -2.11061277340564        1.43803616039296        0.32363940209845
C           -2.30065114175298        0.05122259433728       -0.16549400727539
N           -3.58668879659404       -0.24622739250232       -0.28520364478335
C           -4.25272524040621        0.86533887174008        0.11582492249842
N           -5.58588439791835        0.87362950537831        0.12110246856612
H           -6.06789068111829        0.04035547122416       -0.17059673065195
H           -6.10273088460437        1.68505215616389        0.40909098058641
C           -3.38585728872780        1.93091321405372        0.49104821697391
H           -3.68959902024450        2.90167679793359        0.82678320632605
C           -1.19575008988634       -0.76999592702834       -0.39066187510551
C           -1.41858961676987       -2.06102891976447       -0.91479833638395
N           -1.64048873222373       -3.05790397249393       -1.43765130257406
C            0.09983881973511       -0.28024112817361       -0.11722537212212
C            1.14392863418177       -1.17253072615851        0.15675871714685
C            0.82998917583332       -2.53870964475099        0.39263447996292
N            0.69086760255328       -3.63842021798036        0.68539063480496
C            2.50815781010259       -0.91132638285759        0.40592655385269
H            3.07795436741117       -1.76215481526686        0.76425049694004
H           -0.66791081612981        3.01733077806681        0.57217069377418
N            3.48626926704824        2.39844705669116       -0.82876835135568
H            3.11675991991328        3.30503131033663       -1.05562444141344
H            4.48196038986967        2.26274483693059       -0.79824962616064
