23
 energy: -40.049408582462 gnorm: 0.000450640128 xtb: 6.6.1 (8d0f1dd)
N           -0.79462715070977       -3.47189686591516        0.00051103343410
C           -0.69824224504889       -2.33028900514740        0.00079722846170
C           -0.59525268522975       -0.91959375729214        0.00082153463878
C           -1.73254330661733       -0.12847075006447        0.00105228475313
N           -3.01934924331308       -0.48604213217128        0.00124973546463
C           -3.71176785116850        0.65957633592548        0.00143038793168
C           -2.91018152807370        1.80968307664441        0.00136283259807
C           -1.59997240284869        1.34676991727633        0.00110880273096
C           -0.34413469633525        1.92633943596679        0.00094093580100
C            0.81597632931819        1.15335942134215        0.00072788344649
C            2.03962835128357        1.83665395208307        0.00056938544295
C            3.34235542595988        1.36991495826868        0.00035845908560
C            3.77109419896160        0.04739821029705        0.00027248468749
C            2.97328840876942       -1.09188757713354        0.00035747919782
N            1.66636831328957       -1.22339229215171        0.00051608451243
C            0.69903553928659       -0.33472755484327        0.00066805424803
H            3.48252606394482       -2.05110646602659        0.00026926580410
H            4.84052945661178       -0.11879753246559        0.00011579163850
H            4.11693730614614        2.12607005437862        0.00026661136271
H            1.94150221134274        2.91751285076560        0.00063017968243
H           -0.25522492347590        3.00503112342123        0.00098984449150
H           -3.24966396694954        2.82638266159284        0.00148642339854
H           -4.78735065004388        0.62637343644891        0.00162914058739
