27
 energy: -52.542767795719 gnorm: 0.000995814771 xtb: 6.6.1 (8d0f1dd)
N           -2.31070787011609       -4.30176193371528       -0.81318765538266
C           -2.19799414897826       -3.18226739436559       -0.58301422757850
C           -2.08783043062433       -1.81809094838066       -0.29896698201644
C           -3.18779262927511       -0.92927698669620       -0.10563874024502
C           -2.73377047351560        0.35058778177800        0.16082115711986
C           -3.52099305487928        1.48090800133676        0.40445649906016
N           -4.17557642455105        2.40352295679366        0.60255977262144
C           -1.30436950779372        0.31352614797234        0.12704052686137
C           -0.91337135294757       -1.08612067734298       -0.14826363039701
N            0.34601573680791       -1.49757110113113       -0.14136378935759
C            1.30950377546162       -0.61802293085990        0.01770323308208
N            2.50276662624432       -1.14548134185058        0.26488079161832
C            3.70895031812496       -0.67428852071741        0.22930765967150
N            4.66418061971786       -1.43287393928500        0.79922717472507
H            5.63869249983900       -1.20796100360635        0.71427028356466
H            4.39005447360248       -2.31212640477704        1.20374607519369
C            4.12898458496401        0.53167734786839       -0.44912342006089
C            3.34302750826757        1.61315667982188       -0.66002618946431
C            1.98717355662574        1.79317833515937       -0.28114403405554
C            1.05086536763479        0.84461102938402        0.03389511916903
C           -0.32041664788905        1.25863517194389        0.22914238949814
C           -0.60846798597394        2.62475313595316        0.45386622813052
N           -0.80531539949931        3.73726757947890        0.64816645682536
H            1.63110687375064        2.81684031842994       -0.33777012484579
H            3.79972490473916        2.47356729218418       -1.13257307191983
H            5.15914862743171        0.56229889060063       -0.77869747649717
H           -4.22091791077304       -1.22388945858185       -0.15969309471500
