29
 energy: -56.779605071134 gnorm: 0.000630945786 xtb: 6.6.1 (8d0f1dd)
N           -5.73881606493104       -1.11407432690086       -0.00205285327414
C           -4.62014291918839       -0.85711890806405        0.00200745751826
C           -3.24806397018691       -0.51297848374009        0.00007753333126
C           -2.35884844637513       -1.60233432226801        0.00022316149469
C           -0.98573167335085       -1.61783124562821        0.00012143780567
C           -0.40430470476900       -2.91663897647611        0.00015348989215
N           -0.01127971620563       -3.99232229422418        0.00094973803127
C           -0.02460849085473       -0.55247257652549       -0.00006879078656
N            1.21600151401667       -0.98265327603191       -0.00004517120922
C            2.22216054967846       -0.11719228073666       -0.00015418948471
C            2.00848717716450        1.34183582395833       -0.00022931376930
C            3.29042361386788        1.96320666394272       -0.00029539838477
C            4.22783467294677        0.97360284724716       -0.00021372297842
C            3.59119391207863       -0.32594506933849       -0.00004366337167
C            4.27354849259922       -1.54308926922593        0.00046757429470
N            4.86989332873860       -2.52524423790235       -0.00058729599388
H            5.29493885376033        1.10503541243000       -0.00016380759557
H            3.46371253769263        3.02265243623632       -0.00034235750944
C            0.72077596208129        1.80605735134929       -0.00020669272213
C            0.48069221045870        3.19966145451014        0.00024289713784
N            0.30716821581931        4.33375238085900       -0.00080186172529
C           -0.38359883681202        0.86925548623932       -0.00020552202492
C           -1.64258951304893        1.41931865983287       -0.00022980378471
C           -2.94539595868785        0.85901273012685       -0.00015561635279
N           -3.96603263157768        1.74288690935458       -0.00022377189780
H           -3.78996024188420        2.73215751528253       -0.00038462902410
H           -4.91974234233650        1.42127446939714       -0.00021724489138
H           -1.65837914025598        2.50627185592900       -0.00028976696823
H           -2.83802089323816       -2.57555340753288        0.00054935574316
