33
 energy: -58.061252634405 gnorm: 0.000973573118 xtb: 6.6.1 (8d0f1dd)
N            4.47881471731889        2.76265979316732        0.69375123950249
C            3.65848286940911        1.98744004302268        0.46965999049370
C            2.63920290878974        1.05567144046013        0.19538051012621
C            2.97886383716329       -0.27686254152060        0.36323148992964
C            2.25129845153034       -1.38959262555887       -0.01511450967611
C            2.94440428604865       -2.61419866485486        0.02150436064907
N            3.49229647688883       -3.62612217132076        0.04187070624091
C            0.87426861670254       -1.45732622998425       -0.41238307642930
N            0.51563097850061       -2.63177950059725       -0.97814821271086
H            1.20442362821762       -3.35324819073673       -1.11359632981658
H           -0.41976387338608       -2.76727494619206       -1.32139196798483
C           -0.12174355607040       -0.47925557209325       -0.18130200618580
C           -1.46420989475764       -0.92983922316594        0.00366739484261
N           -1.78204507427730       -2.25697890248759        0.25350480839695
H           -2.69423151012578       -2.34779232762989        0.68223459112278
H           -1.07453905007626       -2.80528299788222        0.72150785615483
C           -2.51188847476026       -0.02292134272676       -0.00518075822247
C           -2.25759412733232        1.40107603596436       -0.08304324884133
C           -3.51126876824962        2.00507116137674        0.06593208977852
N           -4.48082530056656        1.09145581834443        0.19065406297876
C           -3.90933786405720       -0.12146406753788        0.16151599765696
N           -4.66760165601899       -1.27854493594192        0.31043349319411
H           -4.51115552845943       -1.97059005582575       -0.41232498015145
H           -5.64979155356182       -1.04080288734006        0.37948568790484
H           -3.74744666039359        3.05275100775033        0.06485485151201
C           -0.95844458295381        1.85219656678396       -0.18863323068826
C            0.12703077742410        0.97336248892238       -0.22833060579626
C            1.40970639126815        1.58790896706625       -0.30467256920967
N            1.50825187191287        2.83349470578128       -0.80955818918690
H            2.38073486817772        3.33144735289296       -0.73497081396616
H            0.70852892031154        3.30898523190199       -1.18652718406789
H           -0.79837731694179        2.91935169458275       -0.13121304624372
H            3.98269895162535       -0.46649826231959        0.72657234389105
