24
 energy: -49.356354344620 gnorm: 0.000795533255 xtb: 6.6.1 (8d0f1dd)
N           -5.38650575928647       -0.03482244428457        0.61319441465318
C           -4.25518889993915       -0.02660551572967        0.42644057219016
C           -2.85622241051665       -0.01425871340539        0.21001259332355
C           -2.26681290162853        1.24602138657345        0.03904228176434
C           -0.93458888449220        1.56208767293213       -0.11589844680428
C           -0.65324214830976        2.91207643747800       -0.45020844660663
N           -0.44859735451328        4.00922047863881       -0.70941766455274
C            0.23356549734643        0.74319524391623        0.03500406354715
N            1.38422932545781        1.37789911452680        0.03786111922253
C            2.53852334499977        0.79184007147345       -0.04170879381163
C            2.55364850360572       -0.72194641599844       -0.01122521153570
N            3.78670024323459       -1.12329194776454        0.15360229321355
C            4.57711105205522       -0.03616076742567        0.19083157982799
C            3.86664375164141        1.15896830928659        0.16488739873696
H            4.25042546782243        2.15830028768694        0.20776230555627
H            5.64138542395715       -0.16301644167328        0.26621508670816
N            1.41291855650641       -1.33319378574338        0.08079006478243
C            0.25165274741574       -0.71517439118828        0.05563243996212
C           -0.89976048029028       -1.55523912823185       -0.09629734349868
C           -0.59893876331939       -2.90401436419041       -0.42034718726715
N           -0.39511322220273       -4.00180293374632       -0.67693875791103
C           -2.23971391022528       -1.26140702432183        0.04965802824508
H           -2.91044522422774       -2.11319829970678        0.00672341233287
H           -2.95533804309022        2.08304847189652       -0.00967930178317
