23
 energy: -48.071080304353 gnorm: 0.000815970274 xtb: 6.6.1 (8d0f1dd)
N           -1.29242814797048       -3.23536120097386        1.39994815376502
C           -1.19583134644748       -2.16038500268053        1.01495143323229
C           -1.05010142170653       -0.82737875170042        0.57440135891256
C           -2.13984066740503        0.00276240252845        0.38160669643514
N           -3.45491546576410       -0.19910245713615        0.44539827776802
C           -3.97899953436502        0.78054494072625       -0.28658893032258
N           -3.11944625379777        1.59405189447852       -0.92096898921301
C           -1.92959278522037        1.21562675880099       -0.48738243477089
N           -0.73388646859602        1.65050915997681       -0.76360668166284
C            0.33564574315751        1.02226257773053       -0.34999542647799
N            1.44029871642863        1.68913213985712       -0.10297843607287
C            2.65925652027292        1.21951328894971        0.15905393130965
N            3.49522486935111        2.12250558667898        0.68963515894640
H            3.17073688648256        3.06413445550129        0.82019398564354
H            4.45676219794516        1.87716058293812        0.84228881842606
N            3.19275196111833        0.03010742203159       -0.11800231220137
C            2.46682418197191       -1.05401587765217       -0.33392801079257
N            3.08420464394319       -2.12114179340913       -0.85704155127939
H            4.07303807112765       -2.07343571793687       -1.02786288527834
H            2.60895232638815       -3.00697907514654       -0.85893601280433
N            1.21648751797259       -1.24886914486368        0.09169714851132
C            0.22494785914496       -0.41345773370491        0.09384980839000
H           -5.04141647233072        0.89918100020723       -0.39188773326542
