29
 energy: -57.567130775878 gnorm: 0.000632565332 xtb: 6.6.1 (8d0f1dd)
N            5.63425300161824        1.34847776015019        1.10245633188275
C            4.60905164506186        0.97639333108372        0.75319569206483
C            3.33491188912096        0.51949982691517        0.32749838209544
C            3.11466589233314       -0.83147754171005        0.34834761012738
C            1.95275016809059       -1.53719944628837       -0.06132097479937
C            2.19954916517922       -2.93184060723489       -0.17785242939682
N            2.46669423499071       -4.04268028438332       -0.27149906318120
C            0.64275393310553       -1.08749282094056       -0.23424959460331
C           -0.35877854299162       -2.09449148351087       -0.41523762264727
C           -1.67417272565710       -1.79804024389468       -0.26255088736429
C           -2.09562576423480       -0.44474783766973        0.06730489208380
C           -3.46590551226598       -0.47193371891343        0.25518812015306
C           -4.31597985889561        0.57795986683599        0.60870235831497
N           -5.05168200547426        1.40950435801269        0.90364976690012
C           -3.91746211436483       -1.83536624315575        0.02115776852213
C           -2.85852169802666       -2.61971724187464       -0.28844466699932
H           -2.86765078125287       -3.66875462798318       -0.51240036334150
H           -4.94753638698033       -2.13199846008009        0.09335193857608
C           -1.12819625425123        0.58691838697217        0.07261372664919
C           -1.55322586080345        1.90246481437631        0.37918554703605
N           -1.91037260506683        2.93325415277881        0.72974540909304
C            0.21251013870403        0.29781089099881       -0.13877267157796
C            1.11769429025125        1.40348003279928       -0.40976390012570
C            0.53906435243291        2.51878233956566       -1.07855668194443
N            0.16295731699063        3.38601966072640       -1.72579474726144
C            2.45543429965995        1.51833557553893       -0.18644578216692
H            2.91419159068517        2.47297318984755       -0.41610248938831
H           -0.04324952761330       -3.11143870315107       -0.59858629077807
H            3.94035979835578       -1.45693515781219        0.67001285377789
