34
 energy: -57.782204112717 gnorm: 0.000659354880 xtb: 6.6.1 (8d0f1dd)
N            4.15667660845331        3.23031915552767        0.36372826791038
C            3.44412762641439        2.33321357338133        0.24405878821608
C            2.56384550328558        1.24767940413637        0.09103198851948
C            3.11100953332026       -0.00025917305741        0.33490903099711
C            2.56376206180102       -1.24811817540095        0.09083106563523
C            3.44383410345855       -2.33383169354662        0.24453181633671
N            4.15667946115648       -3.23076318986724        0.36343035305906
C            1.22588930350890       -1.56361338240991       -0.32108637367808
N            1.07351458955677       -2.83021504410849       -0.77696559063832
H            1.86448425069129       -3.45242535134174       -0.78280908220878
H            0.20816986960356       -3.14010996354334       -1.17742225702697
C            0.08714287729691       -0.73613388434638       -0.19674058319874
C           -1.15437057481807       -1.39696203747205       -0.11133521526145
C           -2.34616650364934       -0.73146522582844       -0.00323128631748
C           -2.34611769367324        0.73126429127159       -0.00294618640767
C           -3.68558069433878        1.14640240356367        0.15911020688358
N           -4.14093345184244        2.45188146268542        0.14595241091039
H           -3.48133086479666        3.14040611885973        0.47461126028236
H           -5.06893138596575        2.57759542009674        0.52054868625285
C           -4.48305205007891       -0.00006739008939        0.23797732678175
C           -3.68567373954639       -1.14656343275231        0.15865557395792
N           -4.14111629633818       -2.45200371549707        0.14498923926352
H           -5.06913736174546       -2.57779299153661        0.51950195994539
H           -3.48157500758102       -3.14069825515877        0.47341333461791
H           -5.55288994373348       -0.00004178963156        0.35420054375177
C           -1.15428384908301        1.39671903680544       -0.11084482781541
C            0.08718132666181        0.73585295867174       -0.19651572978159
C            1.22597209368710        1.56330594595214       -0.32076207378318
N            1.07367308505330        2.82992047861097       -0.77669013960038
H            1.86468031540718        3.45209588418141       -0.78241671832197
H            0.20851162095832        3.13978121197476       -1.17719757922133
H           -1.17026523726514        2.47609260707112       -0.03937211715710
H           -1.17039868097275       -2.47637029743328       -0.04031013722010
H            4.14450513551328       -0.00031500836895        0.66508799211646
