33
 energy: -70.040997872621 gnorm: 0.000579055656 xtb: 6.6.1 (8d0f1dd)
N           -6.05505816619929       -0.91192240582092        0.36766984762583
C           -4.93122001803115       -0.73129034678325        0.22604064520620
C           -3.54516241039156       -0.49795176758695        0.05699922587877
C           -2.83537075027018       -1.55010345998596       -0.55449121504913
C           -1.48067741218493       -1.74024003513530       -0.61377493588177
C           -1.08140412009933       -2.91777934779651       -1.30017641717536
N           -0.82427672252617       -3.82322103746328       -1.95371156060034
C           -0.41706219197961       -0.87083390565125       -0.17199502167455
C           -0.58502044155778        0.57147577987651       -0.17096726318108
C           -1.74499983938896        1.25230490968174        0.16444043018375
C           -1.64450071442060        2.64920942803547        0.41197413261942
N           -1.68200659771085        3.74562713120691        0.74822378253012
C           -3.06393954647389        0.74859229617552        0.48007949161247
N           -3.90565774942162        1.56746573353618        1.13538719721291
H           -3.64076764095120        2.50805970526228        1.37915456347053
H           -4.85471496974617        1.27435260962550        1.30537408726536
C            0.61158848299347        1.36802645073369       -0.39839756659605
C            0.51615108170808        2.66776425539990       -0.94841808407688
N            0.48833447620343        3.65321283674355       -1.53337468687749
C            1.83777750108421        0.81790887053240       -0.15071439856412
C            1.96477638725272       -0.58017619369462        0.22736087992908
C            3.30592117059828       -0.82402436706699        0.48973474065609
C            3.90147293859339       -2.02217775693067        0.89776682009327
N            4.42721111806317       -2.98127903131019        1.24599962753367
C            4.03364604699401        0.39994927091370        0.27244917657457
C            3.17037454110137        1.38702246888273       -0.12910560533688
C            3.50014057679553        2.71879988802030       -0.41328996897144
N            3.79297016981886        3.80607892593315       -0.63179960378730
H            5.09497237705433        0.50186745027133        0.40614588516648
C            0.83171052283567       -1.41460692470704        0.11383886310239
C            0.98386097528740       -2.80089752050921        0.35462843179248
N            1.12033152236746       -3.89954547245658        0.64952323801513
H           -3.44964996573962       -2.34655155954876       -0.95824003582503
