24
 energy: -43.768124498373 gnorm: 0.000947836474 xtb: 6.6.1 (8d0f1dd)
N            1.54678490333358        3.23502240060018       -1.16251926151631
C            1.31852315956265        2.17187953711031       -0.79764477891079
C            1.00180898131036        0.86553784382194       -0.37576182907419
C            1.95891292155744       -0.11538927388188       -0.21763676280252
N            3.28562064715293       -0.03288923795455       -0.41024183524094
C            3.77160828495888       -1.22123796738531       -0.05774673293884
C            2.79431533424031       -2.14039674181424        0.37413196507260
C            1.58874480335261       -1.46876453271408        0.29187040935918
C            0.25260111370033       -1.82302894362059        0.44329921670603
C           -0.72958687181457       -0.88020332543498        0.19102910549168
N           -1.96491774195694       -1.26928055036949       -0.07605732640382
C           -3.08231376538936       -0.59454899004245       -0.19489532625513
N           -4.08929602920573       -1.23480649156140       -0.83077691194810
H           -5.01604894134868       -0.85094677663022       -0.85359288342575
H           -3.93001603409706       -2.16775864964224       -1.16731271226461
C           -3.35450205502340        0.66258902502065        0.42748123985734
C           -2.37079013032808        1.54187780469378        0.78958392047488
N           -1.10481581462708        1.53980293274689        0.38798561208196
C           -0.33564683385694        0.56517205862368        0.03415300609831
H           -2.63587943102999        2.43500655298045        1.34421726606725
H           -4.38846724766614        0.91892740512843        0.61518753098944
H           -0.03286981546046       -2.84035432385686        0.66363234951017
H            2.96749646480235       -3.14829295945792        0.69423247559179
H            4.83131392153338       -1.39983317896052       -0.12170572141954
