27
 energy: -57.328818529597 gnorm: 0.000692770038 xtb: 6.6.1 (8d0f1dd)
N           -4.17018160600704       -3.16479703716725       -1.04205747375619
C           -3.58483967329295       -2.21461280955502       -0.77262694738957
C           -2.89654077346113       -1.03769719639567       -0.46403673469273
C           -3.49786735689159        0.26923105508494       -0.39776749870391
C           -2.56174915205205        1.20051479240462       -0.02170880773125
C           -2.75558707948854        2.57867314359467        0.13285371715199
N           -2.91903780519573        3.70755313029571        0.25733797984603
C           -1.30161651114729        0.51024966743397        0.12975650587611
C           -1.54928956999061       -0.90949540650205       -0.16023183015883
N           -0.63963357587183       -1.85511252077870        0.07226450443903
C            0.56757580783641       -1.52326393740745        0.43414398582810
N            1.35947924314086       -2.47651170948680        0.92317500348705
C            2.63607179624052       -2.49918718932936        1.05614970339288
N            3.54234651732952       -1.82761392895284        0.34831050240977
C            3.36700538226987       -0.67601678208542       -0.23134144366182
N            4.29853224832319       -0.27973258973842       -1.10489270723939
H            4.30065366849696        0.64652730362060       -1.49978480202256
H            5.07346521657709       -0.89839533525105       -1.28038021045602
C            2.27073577720593        0.26644181177981        0.05506214692607
C            2.55925894232776        1.60758339244431       -0.29403848137175
N            2.88530333316576        2.65170921121997       -0.64109804857525
C            0.99923424721386       -0.09450746727251        0.43034785017144
C           -0.05259744577963        0.89824044695919        0.52188118629581
C            0.22600363669017        2.18848084772599        1.02882833169084
N            0.44239619761979        3.20578144263264        1.50886421221655
H            3.04353702886817       -3.26204094317223        1.70960414994172
H           -4.53412009722681        0.46590756750934       -0.60590742651728
