30
 energy: -55.692125263338 gnorm: 0.000978234815 xtb: 6.6.1 (8d0f1dd)
N           -1.78846660379412       -3.91550089281982       -0.43597105732471
C           -1.62501680450189       -2.79199069487190       -0.26655812966107
C           -1.55179199844613       -1.39147070373382       -0.05098122364812
C           -2.78608489425377       -0.76000255971477        0.33460179974937
C           -3.01744408973413        0.59525610985369        0.33999366625122
C           -2.16906134648064        1.66919692841177       -0.01674883857396
N           -2.78110486997052        2.87412477848902       -0.15247620237472
H           -3.78142577904328        2.94255368116592       -0.12362952722354
H           -2.24789702673541        3.68215129309392       -0.42390333187696
C           -0.77870470245552        1.61934110339636       -0.17754979831064
C           -0.19750764820645        2.82093528346658       -0.63388015021937
N            0.16583459718675        3.80146634663004       -1.11401826865322
C            0.12770566372118        0.51869782349918        0.00655183549030
C           -0.27407045305407       -0.86851689441487       -0.15634857567988
N            0.63877170882975       -1.86110915624573       -0.39332149161255
C            1.89434288984696       -1.60160268959700       -0.25754773271852
C            2.41794861862446       -0.28027654273021        0.14645531764393
C            3.76795940436045       -0.40191098317832        0.28716462403601
C            4.12511412259412       -1.76497267783507       -0.04115968901615
C            3.02198210812956       -2.48461773528286       -0.37353737179892
H            2.96043075566203       -3.51579970414923       -0.65796431904703
H            5.13621389976253       -2.13133227699570       -0.01969146942738
H            4.46100510776034        0.36494301152994        0.57823664759012
C            1.47993268718132        0.77656916452889        0.23188258583857
C            1.96129905096067        2.04430926076570        0.61892453483041
N            2.42003707346464        3.00949682805531        1.03916797435966
H           -4.03077840145248        0.89070854793944        0.58876244338849
N           -3.79589067532216       -1.59269067937183        0.69177788907275
H           -4.70567610461832       -1.22314641562252        0.89886562944893
H           -3.68257794841597       -2.58867028256307        0.61820741176679
