27
 energy: -58.103174770025 gnorm: 0.000828925555 xtb: 6.6.1 (8d0f1dd)
N           -5.69022685882978        0.00051950791294        0.00025338559530
C           -4.54603335156899        0.00071090355171        0.00004464823717
C           -3.12373916178136        0.00041344511863        0.00003044411760
C           -2.50782050924117        1.19538103166878       -0.36670843146313
C           -1.15952792100121        1.52491477331411       -0.26405238594728
C           -0.92393841595049        2.87433666965393       -0.66644242121136
N           -0.84823308102255        3.92143504953538       -1.12300500908304
C           -0.02737055803541        0.73541927265800        0.04599056356038
C            1.18673214649413        1.40251371161972        0.32169475521846
C            1.23030831260248        2.74930684211129        0.75385350053499
N            1.31723682161004        3.79034346304591        1.22450324071231
C            2.38651991313662        0.70539548320318        0.22269202637665
C            2.38630561754782       -0.70611862575159       -0.22300502370777
N            3.65328165254979       -1.08618270950825       -0.35580318344899
C            4.35354718313086       -0.00063012053076       -0.00026566255973
N            3.65362926786292        1.08509888951449        0.35536440299543
H            5.42741073004133       -0.00078044128465       -0.00034465849896
C            1.18630536941906       -1.40290776370289       -0.32183607620771
C            1.22949060825236       -2.74977194373474       -0.75382287856817
N            1.31590917584220       -3.79088207730552       -1.22439149246709
C           -0.02757910761816       -0.73544107737105       -0.04612269070380
C           -1.15991970155324       -1.52461716123414        0.26408329304395
C           -0.92432368866669       -2.87380316903665        0.66716935272261
N           -0.85003780117521       -3.92136324316727        1.12307422422700
C           -2.50812487572134       -1.19473335829304        0.36678590487239
H           -3.16528594908549       -1.99359402403072        0.69092527190141
H           -3.16477563074040        1.99444660924441       -0.69076183344815
