27
 energy: -52.539771053296 gnorm: 0.000853139390 xtb: 6.6.1 (8d0f1dd)
N           -5.53733172430783       -1.08404605918608        0.77903682967127
C           -4.45940879712455       -0.78151921315278        0.52755070409934
C           -3.12545309568765       -0.45698662422138        0.19618983288451
C           -2.26970529883411       -1.56865307856652       -0.21420761818717
N           -0.97977376000087       -1.59432387205857       -0.18562790718418
C           -0.02811302977513       -0.65909296647006       -0.05560643881280
C            1.25113996809518       -1.15325849322661        0.11980135950620
C            2.35052493616300       -0.30065444482110        0.08837204979523
C            2.15275511804079        1.12752663994734       -0.19036528683331
N            3.35471160437739        1.77796180660939       -0.24932344420797
C            4.26661010968992        0.86823610136380       -0.03494707957500
C            3.72878297794932       -0.45422374412685        0.17932613692577
C            4.46012789750153       -1.61348717329148        0.42220505875463
N            5.06533522064285       -2.57097515803221        0.62042702869276
H            5.31226181799400        1.12217704449347       -0.02582074258512
C            0.90041953686143        1.64419053130583       -0.33650033618462
C           -0.23450927197544        0.80527108182786       -0.17895895384255
C           -1.47303261718194        1.41959074964758       -0.02278070300690
C           -1.52608504196841        2.84047441831599       -0.05271830528530
N           -1.64296535845857        3.98023683719891       -0.07765010530270
C           -2.74128199845269        0.84961415653382        0.27292067522425
H           -3.50454382498917        1.56398667790604        0.56346994289198
H            0.76776126959819        2.69974068769935       -0.52102480243588
H            1.38009510462362       -2.21812188821091        0.23592680924437
N           -2.88713342232690       -2.70638961392899       -0.59755096013459
H           -2.31223545423117       -3.50730040543577       -0.79522185067147
H           -3.88139483872251       -2.82180143711967       -0.49944291383928
