31
 energy: -61.024366910091 gnorm: 0.000919302102 xtb: 6.6.1 (8d0f1dd)
N           -6.12204375132033       -0.95459428302574        0.46329063877731
C           -4.99771711807145       -0.79305330453845        0.31499627342085
C           -3.60452628999953       -0.59138637828154        0.13816869611316
C           -2.79663868306306       -1.71353568709913        0.26394885839214
C           -1.41714435375192       -1.81543838895736        0.06867732799482
C           -0.98824642520853       -3.17255023618055        0.10886804077853
N           -0.71941390087822       -4.28560589577778        0.15463935109474
C           -0.41431079063531       -0.83176446007410       -0.07828812244066
C            0.90355703848654       -1.29197774922506       -0.21640327461607
C            1.97749300697514       -0.43528591680974       -0.12081764334045
C            1.75440602390112        0.98584307040187        0.17164604731282
C            2.97390267593349        1.59998841231570        0.32809169664226
C            3.98355006987164        0.61767429327812        0.11893768354097
N            5.30011586920349        0.82683467141377        0.17235341910192
H            5.66601556926554        1.74080158171728        0.37712924586625
H            5.93856749692228        0.06653081193610        0.00381887839234
C            3.36516772516143       -0.63642041594476       -0.15872813095897
C            4.05657475864153       -1.81959591675982       -0.41083230480589
N            4.67186637517402       -2.76830857787444       -0.62005898400816
H            3.15065615381934        2.63384452569442        0.55451512314854
C            0.43122181123492        1.47052195209671        0.19213826603810
C            0.28196612354413        2.83572142876750        0.52716615633553
N            0.27455882481631        3.91608845055221        0.91349010012060
C           -0.65643506319539        0.62054117335308       -0.02177434777817
C           -1.92515332263260        1.21909301108732       -0.28148679824414
C           -1.91581485541256        2.55671795673800       -0.76877427878502
N           -2.00283360668492        3.57393742520307       -1.29019059888984
C           -3.20811481253897        0.70647682313542       -0.20864128627829
H           -4.00915940695813        1.40629356747562       -0.41803758138077
H            1.08307090670792       -2.34973192169420       -0.34535579334435
H           -3.30697198890614       -2.64486728552395        0.48327013409935
