28
 energy: -57.046590852383 gnorm: 0.000860667691 xtb: 6.6.1 (8d0f1dd)
N           -5.47724031452554        0.10904691629604        0.74992036487451
C           -4.35554860286859        0.03866146283616        0.52288895748701
C           -2.97979514199706       -0.00636861915111        0.20233628208428
C           -2.41425670728369        1.19205343990335       -0.39062851158041
N           -1.16978368819294        1.53453819993794       -0.26396330105710
C           -0.04747746436040        0.88654754586671       -0.01581891518302
C            1.07116652122542        1.67383764248924        0.28989023037313
C            0.89494771125667        3.05677123657053        0.50408923518537
N            0.76252841315865        4.18008008733525        0.69381690776613
C            2.35520108416388        1.11332942113798        0.27171871777432
C            2.52350714084811       -0.28905268964513       -0.19034583910095
N            3.82294785250883       -0.59312159536615       -0.28891340167344
C            4.48033194767238        0.50353617716403        0.08460106535881
C            3.64018377652590        1.59060208016272        0.41640476149839
H            3.94928311142486        2.56732710053252        0.72958048276298
H            5.55565260966799        0.49534189671901        0.11024175017012
C            1.42173815906812       -1.09395216527208       -0.42570500636454
C            1.60953346433947       -2.38839210592984       -0.96024818358322
N            1.77889068139106       -3.39227146992102       -1.48678538656461
C            0.12081334205239       -0.58578329770006       -0.15262891461405
C           -0.92065674905791       -1.44714812795212        0.17633478556964
C           -0.62787989217022       -2.81833554741963        0.42658568875468
N           -0.49847908161049       -3.91682877879590        0.72318605407100
C           -2.27575179238925       -1.14774933944204        0.47750559645065
H           -2.83330087034332       -1.96369316267212        0.92444865843472
N           -3.23537025210250        2.06222976897475       -1.00173212697043
H           -2.85368039056345        2.94441137931241       -1.30054890333355
H           -4.23357989715323        1.94023031756711       -0.97356469712245
