28
 energy: -56.275873659623 gnorm: 0.000782256881 xtb: 6.6.1 (8d0f1dd)
N           -3.23702015069147       -3.84755947524708       -1.20447176598244
C           -2.92703270031907       -2.79411480175665       -0.86722620968169
C           -2.58643660271928       -1.50054146106301       -0.46340743639733
C           -3.52815727964348       -0.45124169452345       -0.21017226972268
C           -2.87445438217492        0.69888555814639        0.17978170271251
C           -3.45534610285777        1.92778852648824        0.50718346658060
N           -3.93253494698405        2.93791400118801        0.77421950657580
C           -1.46610531964600        0.41535482370319        0.16922455086229
C           -1.31026411446683       -0.99994599733842       -0.23307116203175
N           -0.14203034342349       -1.62786188394738       -0.24259343188967
C            0.95235837895011       -0.95751387903113        0.03839805532420
N            2.03667553840462       -1.68419148372607        0.25372834000208
C            3.28908684000867       -1.33057819374804        0.37174313237138
N            3.91092313126399       -0.27038205084618       -0.18672316879059
C            3.34842620162400        0.87556733960870       -0.44379919532171
N            4.09791523637977        1.78061297600836       -1.09404538493129
H            5.02475406852592        1.51887284074443       -1.38221904976865
H            3.75725212568562        2.70437489695537       -1.29134294607059
C            2.02601721564764        1.31157709727180       -0.04450726560519
C            0.94365963896537        0.52586255668319        0.19777455868665
C           -0.34778988891285        1.15587781552548        0.41379666693701
C           -0.38801344736113        2.51562199159934        0.79453977568993
N           -0.36312982588186        3.62076628980120        1.09984988159578
H            1.87655061843617        2.38703441722477       -0.04144217262482
N            4.10309615270356       -2.19428080575339        1.00051157330881
H            3.72770911011857       -3.08233081770388        1.28476433756425
H            5.09664198443837       -2.05602179139931        0.95009726947844
H           -4.59363136586963       -0.55970161576519       -0.31058259597104
