32
 energy: -53.542714415971 gnorm: 0.000682832426 xtb: 6.6.1 (8d0f1dd)
N           -4.37706380470793       -2.02603122969292        0.08984830751088
C           -3.48447956238060       -1.29555792151196        0.06168289267884
C           -2.40129126820570       -0.40703997630436        0.00943500569854
C           -2.69823868049282        0.90031707039417       -0.46075455734023
C           -1.91854003144603        2.01636649257418       -0.20700683135732
C           -0.61836536725375        2.09864003384753        0.29576752734462
N           -0.26848856481851        3.31407130104872        0.78026557584220
H            0.64116373511889        3.47353091197526        1.17166438902341
H           -0.91438395054328        4.08068639488156        0.73179323441111
C            0.39795572270929        1.08963294459486        0.22443044094372
C            1.71351998268949        1.54358301746198        0.14203977452309
C            2.77023016409412        0.66658325884942       -0.01126962942418
C            2.51321853663816       -0.75525751338480       -0.09931771199350
C            3.77008444780890       -1.33154891309945       -0.30972643667628
N            4.73281544793677       -0.40043305185890       -0.33544593667381
C            4.15568849136182        0.79240352200940       -0.17630926757765
H            4.74492122939430        1.69150180434474       -0.16808605406827
H            4.02986800759532       -2.37062432626619       -0.41877672406136
C            1.20890118086446       -1.23791238539457       -0.00545227744794
N            1.02731567968722       -2.61816056095435       -0.13915695485370
H            1.86394327097572       -3.06617872949363       -0.48541946308592
H            0.20702236351951       -2.90309060811677       -0.65611540820832
C            0.13327026614065       -0.34532619628463        0.19714846712816
C           -1.16069075089175       -0.90414974911863        0.46027829466142
N           -1.20677137236515       -2.06546576088511        1.14679021246388
H           -0.34965850446790       -2.51662586644242        1.42063810223389
H           -2.08265921487766       -2.54565619959460        1.27035791635970
H            1.93087693068112        2.60155375452118        0.09527348072555
H           -2.41021345993197        2.96867367371899       -0.37330946915885
N           -3.89455475766752        1.07965290718928       -1.07622333730836
H           -4.55862532610969        0.32428537292983       -1.10284431710235
H           -4.22682743925624        2.00913720666169       -1.26065518611014
