31
 energy: -60.238789187872 gnorm: 0.000405396885 xtb: 6.6.1 (8d0f1dd)
N           -6.08639388489630       -0.55357841545541       -0.19092269849515
C           -4.94201175075261       -0.47731304770279       -0.13106914460209
C           -3.54010742512162       -0.34818403821954       -0.04951602419599
C           -3.02351057595302        0.98021249071900        0.10598682150120
N           -1.76999129191991        1.36668524966209        0.05825060529683
C           -0.61368634756782        0.73568062375403       -0.00665049858056
C            0.48893242871910        1.60981854357413       -0.09212646310736
C            0.23963809513346        2.99651669034354       -0.15887734104443
N            0.06167313772254        4.12887776428594       -0.21371926766343
C            1.80290588476035        1.13516461330103       -0.07303584632345
C            2.02385026078773       -0.31571832183231        0.04115977756889
C            3.40299816481816       -0.51999275378906        0.06343257641441
C            4.10405474929749       -1.71766186899856        0.15837770183486
N            4.73259621945700       -2.67866650152795        0.23664018056406
C            4.02869940860664        0.77392817018257       -0.03450230032286
N            5.34992759127569        0.96453840867894       -0.04337086872966
H            5.97324645929842        0.17611177171184        0.01817104661719
H            5.73418179813831        1.89112383476606       -0.11217395872169
C            3.03195314253466        1.76730959404043       -0.11585770271095
H            3.20567766528950        2.82296394574627       -0.19511440095103
C            0.94880981316860       -1.18751350048824        0.08547038461874
C           -0.36454494270223       -0.72715598973245        0.03460546669270
C           -1.40751942047498       -1.68207825667213       -0.03586654299332
C           -1.03269445673096       -3.05151762144453       -0.07512274773634
N           -0.79719712199006       -4.17332169834993       -0.10905766497841
C           -2.79192375846491       -1.51266175745514       -0.11231108687752
H           -3.36332530144505       -2.42922622731458       -0.21610957627172
H            1.13766004550952       -2.25055979367936        0.14343098362059
N           -3.89689310338357        1.99018516778424        0.28919500868693
H           -4.89073003301525        1.83871641170771        0.28285711986070
H           -3.52413890479835        2.92303572130452        0.34305295972834
