33
 energy: -64.473871604295 gnorm: 0.000915705724 xtb: 6.6.1 (8d0f1dd)
N           -6.15870995649176       -0.77277297954541        0.40197514456014
C           -5.03884471001296       -0.55946297821806        0.26923187519370
C           -3.66355415579874       -0.27065330176492        0.11492854402099
C           -3.27545007739373        1.07891500193522        0.26258862136276
C           -1.98116580639725        1.57899606935572        0.03227854637463
C           -0.74116981503746        0.98058211008926       -0.12216294125583
C            0.36439218601265        1.87244240974457       -0.26962020936547
C            0.15093251510714        3.25557482256434       -0.42999058600345
N            0.00062904626590        4.38618573164439       -0.56835870504026
C            1.67634887336591        1.42203993207378       -0.19945388029924
C            1.92835035055543        0.00088818546786        0.06866518496429
C            3.29678637358373       -0.16064542241266        0.18826059698809
C            4.05648333222440       -1.29941726067685        0.44821881920045
N            4.77907918926142       -2.16939133411070        0.65687560535744
C            3.90485090748908        1.14350026751627       -0.02943466670637
C            2.90114967648183        2.08384840454921       -0.26006086976345
H            3.04548154843391        3.13062768200141       -0.44418409902940
N            5.22572244011938        1.34425539431832        0.00100745627661
H            5.61050782536288        2.25789255577985       -0.16448652214913
H            5.84607603695949        0.57142054950783        0.17890056946982
C            0.84926851626274       -0.89788945654566        0.10781467653954
C            1.13826759746766       -2.23974846947885        0.44832770059631
N            1.43279581195817       -3.27490719854312        0.84542960140523
C           -0.46597934383288       -0.45678915619987       -0.08564772925510
C           -1.47508864049857       -1.43329246972516       -0.33259973923012
C           -1.04973519279114       -2.69383552918538       -0.83380620836838
N           -0.82531062249162       -3.68653946970759       -1.36211570434863
C           -2.85372949968142       -1.34925514915002       -0.24295136669360
H           -3.38560204515742       -2.27167608919984       -0.45065114574452
H           -1.94613452419074        2.66452394437740        0.03532640944151
N           -4.22530614651407        1.98377133865734        0.59020504331638
H           -5.18162417290991        1.69713089048473        0.71459517584770
H           -4.00275291730843        2.96213416648117        0.63977940813590
