27
 energy: -51.748688033528 gnorm: 0.000830032097 xtb: 6.6.1 (8d0f1dd)
N           -5.62986055889033       -0.16926939699292        0.01835533845358
C           -4.48122824049284       -0.13005057147552        0.01145279413882
C           -3.07208979081650       -0.12269331272463        0.00642453285085
C           -2.42808891268347       -1.39578523784006        0.00409084250488
N           -1.13783313513292       -1.67808041804548       -0.00567826929994
C           -0.05531082539117       -0.92576611736256       -0.01084164302151
C            1.14965927508046       -1.65946418532194       -0.02254042139182
C            2.34243228693983       -0.98645182077101       -0.02679387982728
N            3.60638121326210       -1.44462386910693       -0.03560669074185
C            4.37667732211082       -0.35104883302853       -0.03323729874134
N            5.70776526143942       -0.44464160949069       -0.04040606551778
H            6.28449929136055        0.37735782834039       -0.03829224353628
H            6.12727000508777       -1.35839778927568       -0.04784800991863
C            3.63057607906455        0.88439400594470       -0.02223955377718
C            2.32018880950046        0.49697140666778       -0.01853611321363
N            1.18273532073787        1.19958003652246       -0.00947036054582
C            0.03794713201516        0.55815761636091       -0.00615688971885
C           -1.09899532961063        1.42024256287451       -0.00055608823119
C           -0.78646382129396        2.80519668267771       -0.00008014544192
N           -0.60594090360388        3.93746190943150       -0.00109164006164
C           -2.45040855418140        1.12426054158420        0.00394593224664
H           -3.11892379971257        1.97877948517596        0.00649502637473
H            4.04255519295888        1.87228789849597       -0.01847746258012
H            1.09711239614542       -2.73688944117348       -0.02658115275390
N           -3.20756083872668       -2.49854926146350        0.01095325604688
H           -2.75190232397646       -3.39417148438033        0.00780030732046
H           -4.21078026889052       -2.43595457282280        0.01693786508386
