26
 energy: -48.013308584409 gnorm: 0.000630972334 xtb: 6.6.1 (8d0f1dd)
N            5.28218201998304        0.00936380220367        0.00134860229326
C            4.13283261637987       -0.00275912982851       -0.00097569850596
C            2.72499513668563       -0.05690703722092        0.00025712012080
C            2.14383615386925       -1.34232024089344        0.00140156508099
N            0.84866003124990       -1.68159243419385        0.00062121102987
C           -0.24100391325811       -0.96489326260211        0.00006396280959
C           -1.44109554278948       -1.75859547116377       -0.00083433265835
C           -2.64404228239876       -1.14201009146954       -0.00087063235326
C           -2.69232424771138        0.32926201181251       -0.00007374689570
N           -1.58196282675382        1.07918522702436        0.00026505082218
C           -0.41111460288473        0.50047499356197        0.00027691083142
C            0.69999978598463        1.42146379872238       -0.00030562427880
C            0.32267325617874        2.78965472894842       -0.00164687894275
N            0.08425830550482        3.91089901651001       -0.00117973508672
C            2.04973773216744        1.18025365508964       -0.00058203672906
H            2.69327958088193        2.05308803341065       -0.00146739811980
C           -4.00890880943342        0.70122551314859        0.00014630395402
C           -4.80817415526497       -0.50226262891615       -0.00062218853235
C           -4.01225988563719       -1.60090078968882       -0.00123362316922
H           -4.31371831098248       -2.63099897117024       -0.00192912830380
H           -5.88367066512783       -0.49898356555514       -0.00067711085290
H           -4.39350980967724        1.70245559167696        0.00079390515469
H           -1.32178448961605       -2.83284510515897       -0.00114797491556
N            2.95006301038491       -2.42408555406801        0.00304648266783
H            2.52020508093590       -3.33243494869853        0.00342278917335
H            3.95140980482942       -2.33319613738116        0.00347643520623
