26
 energy: -44.041523347366 gnorm: 0.000468609644 xtb: 6.6.1 (8d0f1dd)
N           -3.08002516304293       -3.57679328773564        0.00262067823373
C           -2.75108865282460       -2.47519710123031       -0.00012845629354
C           -2.31786423627978       -1.14801225202867        0.00047801858209
C           -3.12436096223639       -0.00062756339142        0.00027438530464
C           -2.31831297705912        1.14707289284456       -0.00001207262425
C           -2.75205131927545        2.47408716222370       -0.00032762719208
N           -3.08143172892948        3.57553755771842       -0.00112969138544
C           -0.96654265590292        0.72920406845642        0.00012386444680
C           -0.96625743052811       -0.72961550455381        0.00061343171402
C            0.22694718086203       -1.41305386428730        0.00083058987776
C            1.45820959935519       -0.73725730560323        0.00065921482302
C            2.59889748065145       -1.54498509767399        0.00093378754988
C            3.95203973649610       -1.24516326303443        0.00087047123838
C            4.56037938580962        0.00087695593883        0.00051536990894
C            3.95155141940868        1.24667842358067        0.00011545738498
C            2.59829164182089        1.54596956347480       -0.00003931979651
C            1.45792081412788        0.73779458222741        0.00017396778597
C            0.22639398258439        1.41310913072397       -0.00008568715345
H            0.21753212786220        2.49437793340836       -0.00046866188138
H            2.37755544912237        2.60818098358970       -0.00038841686756
H            4.61793286652000        2.09946161260671       -0.00011627203034
H            5.64325192637023        0.00108924092338        0.00055402435748
H            4.61875569125516       -2.09768494555668        0.00114655753732
H            2.37857789370484       -2.60728301768768        0.00126104775455
H            0.21850861426994       -2.49432613042372        0.00115989734118
H           -4.20010104654217       -0.00083847181006        0.00010908468384
