28
 energy: -57.056278193652 gnorm: 0.000972403343 xtb: 6.6.1 (8d0f1dd)
N           -3.76855494461673       -3.29061211691107        0.86090680539521
C           -3.14334394320043       -2.36291352346406        0.59983111585521
C           -2.45888504988983       -1.18566564086673        0.29080398668927
C           -1.08838356307650       -1.00460426802394        0.08123834221302
N           -0.13842257276030       -1.90775098057804       -0.00720806283619
C            1.09994342661294       -1.50905635291386       -0.26535132034556
N            1.90971932336698       -2.43273022386759       -0.72273248919396
C            3.19367868172704       -2.52186272718405       -0.84329049771013
C            4.15216270035623       -1.76476996528421       -0.14631126797627
C            3.92298383541888       -0.52333477654578        0.39867682492802
C            2.77182416615600        0.28020618970853        0.26992587406507
C            2.95284081393749        1.58390514403473        0.80873618286653
N            3.16740380392290        2.58734843480426        1.31840865358704
C            1.48583345473203       -0.07233922854511       -0.16620513131502
C            0.45332905360852        0.87977931475458       -0.31135369263306
C            0.72224151407735        2.24130221991257       -0.57919521059770
N            0.90260159240183        3.33148148807236       -0.88459408736895
C           -0.86405918678409        0.43416945159440       -0.20222829688048
C           -2.10477916601740        1.06435035856072       -0.21223682011918
C           -2.41585189254377        2.40300547194138       -0.46094013533662
N           -2.75073303957192        3.48477443067063       -0.65638948455170
C           -3.09497822747223        0.07624721064046        0.10553005096878
N           -4.40011523382386        0.30832241743983        0.20258850055327
H           -5.03324507634755       -0.44211765248809        0.42880506814714
H           -4.76437069781436        1.23406578241512        0.04181675614748
H            4.75322167363687       -0.04530979241700        0.90521865801925
H            5.14549953017016       -2.18177520637316       -0.05582632024429
H            3.53140629839090       -3.34506943258537       -1.46398033392556
