22
 energy: -45.116199163782 gnorm: 0.000626628222 xtb: 6.6.1 (8d0f1dd)
N           -3.11847099031039       -3.47382164224428        0.77758381423684
C           -2.72935521988579       -2.42473907445850        0.52426388806518
C           -2.25717732121238       -1.14233792672494        0.21909367198369
C           -0.90248441357400       -0.78851971172465        0.04305569922579
C           -0.86369521755348        0.67553832445627       -0.24965300821220
C           -2.19045199795135        1.11508775391615       -0.26235230428532
C           -2.62521952063113        2.42707730568928       -0.48899892969120
N           -2.99783379453969        3.49635454628583       -0.67272018983599
C           -3.02513210937162       -0.00181911306971       -0.02771992376837
H           -4.09935021004965        0.03608106689513       -0.00369853052960
N            0.27269187646419        1.31249131277834       -0.11305121314096
C            1.40815913364214        0.70908084187002        0.15166760485390
N            2.47317556050740        1.42631080107890        0.39570356937063
C            3.70235046896191        1.05864981745487        0.62930053752325
N            4.33348520333676        0.04684502128600        0.08604981187230
C            3.78550821455492       -1.01430885444361       -0.46982118942467
C            2.50273287858210       -1.51100418023663       -0.30932795778055
C            1.38237538851463       -0.80659847979823        0.17429174290583
N            0.22183012860524       -1.40116794019730        0.24385716944218
H            2.27614782533565       -2.46800057524174       -0.76260539452629
H            4.47333056816556       -1.58789718308082       -1.08198387873816
H            4.31063675960879        1.76601384720826        1.18106727965424
