27
 energy: -57.322201420933 gnorm: 0.000668765217 xtb: 6.6.1 (8d0f1dd)
N           -5.89551637149241       -0.33427053065762        0.40196678392280
C           -4.75657702151673       -0.23192403762647        0.30940521601835
C           -3.36288180819171       -0.06818248271311        0.15994650400910
C           -2.90445369645457        1.20543388234089       -0.31033447276221
N           -1.72275050352201        1.69044368250405       -0.00815811722808
C           -0.56193248789112        1.17627126824407        0.25714567592926
N            0.34617232680222        2.06931541073786        0.69206859641419
C            1.59987205133372        1.76599339553858        0.57822362195786
N            2.64587618280882        2.56968636150816        0.88675174960690
C            3.72169225095931        1.92918811352946        0.50141187401886
C            3.46295450172303        0.63552170055642       -0.08166243824364
C            4.43280708002485       -0.24070083871795       -0.57265107376928
N            5.25103217572183       -0.93815220449725       -0.97561144618082
C            2.08758871144624        0.49139969912860       -0.02610915056702
C            1.15019128161557       -0.52545093871510       -0.24777864864687
C            1.58581123081660       -1.77601195869030       -0.74414938095487
N            1.97586250989028       -2.73755189160426       -1.23068615364373
C           -0.19804511712979       -0.24260531422860        0.01757022142646
C           -1.15351396696735       -1.25797305231900        0.26018943333430
C           -0.67750576322658       -2.57453286201306        0.50870572405659
N           -0.37946659980367       -3.64492089801313        0.78793424310909
C           -2.53406917857496       -1.14392705212998        0.44671857720572
H           -3.03326459909007       -2.04633258086266        0.78247553387175
H            4.69722026627759        2.36471219258099        0.62976378378672
N           -3.73892300459146        2.01786337397515       -0.97114517735913
H           -3.42674510966438        2.94846146766570       -1.19382693106388
H           -4.70364662130570        1.76813203047851       -1.11152707024965
