20
 energy: -40.872557506416 gnorm: 0.000850386630 xtb: 6.6.1 (8d0f1dd)
N           -0.73567356291160       -3.46077971181479        0.90209095201103
C           -0.66532702610181       -2.34335472483228        0.65916934351001
C           -0.55272015663055       -0.96136754798493        0.39203167485452
C           -1.64533293559114       -0.11927946928360        0.30607901123468
N           -2.96022055147928       -0.34659584694449        0.35182876208674
C           -3.49888432097502        0.73709678334077       -0.19815673416622
N           -2.65759811989771        1.67319053589218       -0.67590998074130
C           -1.45923155233155        1.23925110010806       -0.33717503071397
N           -0.27968269846591        1.79046202709784       -0.50218866672299
C            0.76809511357644        1.10468594633624       -0.11569983850165
N            1.84407182130778        1.64740825305614        0.37058125976536
C            3.06723516218805        1.21927661888196        0.55074413702876
C            3.68405199055968        0.17161520657226       -0.13054268029566
C            2.93341545966770       -0.85421466662536       -0.70533742711152
N            1.69680046114584       -1.12882027883977       -0.38134766051092
C            0.69752000746315       -0.41107882773179       -0.00664495447411
H            3.41580443163017       -1.61501081280447       -1.30614956704990
H            4.76193935872491        0.09959892866750       -0.13523703330701
H            3.64988584030442        1.83544639531584        1.22699988182233
H           -4.56391457938339        0.85393032109210       -0.28221600321823
