32
 energy: -64.751902846008 gnorm: 0.000975769667 xtb: 6.6.1 (8d0f1dd)
N           -5.89628686334000       -1.22796504670586       -0.50547157374304
C           -4.80435259842327       -0.92290640924152       -0.32735702934897
C           -3.46298840308590       -0.52907881235212       -0.11196706600884
C           -2.59620447707990       -1.55375276827447        0.28427533802602
C           -1.22236873246095       -1.54479192165890        0.37856222416514
C           -0.69282018060220       -2.76086171367254        0.88809383320584
N           -0.36799975774876       -3.72560871102631        1.41551605787113
C           -0.28542269160877       -0.49298778752627        0.11683698592554
C           -0.63902660388391        0.92221416374269        0.23159574464429
C            0.40307445857520        1.85881198010975        0.43748752748053
C            1.71449960058694        1.49475767365860        0.30279520992042
C            2.06197236447389        0.12075374146035       -0.06983921277850
C            3.43217037361604        0.11585382501957       -0.22595438690886
C            4.33155299168760       -0.88219199775278       -0.58375879153808
N            5.15318822113778       -1.63191323665091       -0.87590457042843
C            3.84087039409925        1.49184506735921        0.08943399004255
N            2.81638621483438        2.27177716456433        0.39238937582056
N            5.10222327197500        1.91211385985982        0.07464326940999
H            5.30122784987709        2.86907825539438        0.31208908380688
H            5.84824074283566        1.27896923535372       -0.15993489565653
C            1.04111392105071       -0.84870280409577       -0.12431251074279
C            1.41248762169931       -2.15860086768304       -0.50394117420647
N            1.77261843611885       -3.16314473334970       -0.92405955518239
H            0.16678330384513        2.89327319770502        0.62963816396577
C           -1.92994001863806        1.45440580048477        0.08830067101605
C           -2.03931838695923        2.86549826812130        0.19709445493214
N           -2.22024429326198        3.99652507480924        0.28204001823254
C           -3.17973112191697        0.84350431652214       -0.24613972286593
N           -4.18186136191749        1.65101799984855       -0.65288062692193
H           -4.06102284268014        2.64923619723549       -0.69008669791047
H           -5.09627176277149        1.26565588546467       -0.82338942419540
H           -3.07534873513325       -2.50254015982322        0.49966056027043
