38
 energy: -64.665380825134 gnorm: 0.000533381080 xtb: 6.6.1 (8d0f1dd)
N           -5.24111906581168       -2.43172533950885       -0.00387103473873
C           -4.38510948046366       -1.65651974107440        0.00986115892916
C           -3.35308850710902       -0.71144496097400        0.03879326637407
C           -3.72323230378933        0.59897639611204        0.46817048067751
C           -3.00728561151891        1.74034660620469        0.18543220396113
C           -1.68833289407389        1.90950937765370       -0.27636783036045
N           -1.42215693095574        3.19139535202830       -0.70433874745922
H           -2.22213748129984        3.76621204390550       -0.91233550045670
H           -0.62397533368715        3.31805512760804       -1.30533289170035
C           -0.62206351199665        0.98213754487991       -0.20316625597367
C           -0.82945575231121       -0.47123209819715       -0.23403115121126
C            0.26265589652686       -1.32404966370750       -0.12417592887391
C            1.56063765850708       -0.85228776763310       -0.04322126135935
C            1.79211249610129        0.57963798688406       -0.09791468167964
C            3.17680092591075        0.78815591099928        0.00066238084336
N            3.85122376801025        2.01811353211739       -0.00074154020364
H            4.85437258106743        1.88402104433112        0.05967121854320
H            3.62433211858909        2.59716715761605       -0.80132230691957
C            3.79117119805528       -0.47823425853441        0.13465312746390
C            5.15951556786896       -0.69023396485406        0.26437678565438
N            6.29599054175028       -0.84996799244610        0.37274011355325
C            2.79610097006526       -1.48673015761696        0.12943382620425
N            3.04041228834668       -2.84928268508341        0.16969378215518
H            2.29944992069727       -3.40392250974494        0.57103968316455
H            3.95549068065125       -3.09437717191756        0.51895576246075
C            0.71558242511624        1.46439849110627       -0.10460472589488
N            1.02143419558651        2.80624169590383        0.06173947137450
H            0.32130720535798        3.36048531384999        0.53295007659635
H            1.95125711710090        2.93299849967054        0.44053641245273
H            0.10444963203286       -2.39004982715066       -0.03224029133657
C           -2.09363650559284       -1.12393976107692       -0.42781980392388
N           -2.06754241398880       -2.32834869036097       -1.04597625236983
H           -1.21422046304553       -2.68911029866014       -1.43086924071627
H           -2.90671807596068       -2.88056452377084       -1.10337423169215
H           -3.54627073164861        2.66993350515944        0.33646385692640
N           -4.93405053636816        0.72347033381181        1.07411026430554
H           -5.32697512726205        1.63680989751337        1.21584260513635
H           -5.55418854015623       -0.06809250784012        1.10493526069468
