30
 energy: -61.295536209781 gnorm: 0.000900866183 xtb: 6.6.1 (8d0f1dd)
N            4.21617337197604        3.01150028548521        1.27141482941798
C            3.68670401567993        2.04753472026205        0.93980079044960
C            3.03856409955000        0.87539956145494        0.54410820455561
C            3.67203191324159       -0.39900585949719        0.35529331181857
C            2.73975116997011       -1.32576275936543       -0.04537764173893
C            2.97900627652903       -2.68043916987299       -0.30636014747876
N            3.20101022822886       -3.78888305911727       -0.50342963237206
C            1.45787842645627       -0.65698673251299       -0.10483154888082
C            1.68193572524105        0.73356358115072        0.26713978758275
C            0.63524548592236        1.65030484292372        0.15141157639741
C           -0.64546686622365        1.22780712774567       -0.14102880789402
C           -1.62860817400615        2.21029202276359       -0.52756494091969
C           -1.13942657310668        3.48450828977091       -0.90047716795023
N           -0.77584992951780        4.52368272566101       -1.22173291667780
C           -2.99229898884613        2.04518108845180       -0.65195658291313
N           -3.74797105490827        1.09349259023607       -0.12641772974385
C           -3.40021900720596       -0.07087323215891        0.33185823367027
N           -4.29591005978178       -0.70862876158756        1.09914799549700
H           -5.17754336047552       -0.25299088654629        1.26665181755277
H           -4.17640760827198       -1.67122312585485        1.36708151118506
C           -2.16000013291835       -0.78218544230001       -0.00873285883677
C           -2.32134689009114       -2.18533049266133        0.07335841585290
N           -2.61104412802900       -3.27981490851235        0.26603287405302
C           -0.92991926607178       -0.20415923729533       -0.23466591147621
C            0.20413148246667       -1.09618992636071       -0.42736512596362
C            0.02852048517494       -2.38487969209791       -0.97993923345787
N           -0.04207608620313       -3.37877162237746       -1.54698035971778
H           -3.56432930852865        2.84108796826739       -1.11482639635633
H            0.84224553511264        2.70537296149552        0.25529717468366
H            4.72037295585406       -0.58352180113924        0.50470691156219
