29
 energy: -56.781630655188 gnorm: 0.000953397401 xtb: 6.6.1 (8d0f1dd)
N           -4.44939825018051       -3.15101455885021        0.78662807844865
C           -3.89412663312816       -2.16969688997792        0.56555656025201
C           -3.17661700015534       -1.00249116272383        0.29267778467755
C           -3.66033482979529        0.26356926408372        0.07563236105779
C           -2.56874362408566        1.16382838218781       -0.17890715992641
C           -2.73836621529433        2.52679169518152       -0.44291761343474
N           -2.93257534784139        3.63789467351210       -0.65890427202337
C           -1.38584048628842        0.44024893400352       -0.10703409065474
C           -1.73504474757945       -0.94507564483598        0.17923804172325
C           -0.78823769133298       -1.91267641241033        0.22602663107694
C            0.58557531830714       -1.59173660724618       -0.02019947919524
C            1.41502398127656       -2.64630325034370       -0.32195431782764
C            2.74265779893025       -2.58705225310219       -0.81594135766574
N            3.63673056772145       -1.67762088890298       -0.65272820832827
C            3.50692730655553       -0.50913673694730        0.00583529512031
N            4.68235562373592       -0.01124426968006        0.43479078853253
H            4.74443014469018        0.91130759314800        0.83137533508686
H            5.52059445459634       -0.51386630442518        0.19905005370871
C            2.32195517123952        0.23503391906682        0.16254470575549
C            2.52206832545487        1.51814771812287        0.71917778421594
N            2.79003346436460        2.48363236040850        1.28239968104867
C            0.97088811836323       -0.17801699317772       -0.07476399170368
C           -0.02293121119530        0.79281435312035       -0.20365155121011
C            0.30383608105769        2.13353753114875       -0.50978748309450
N            0.53242300910401        3.20033181018618       -0.86289372697805
H            3.08804738565229       -3.44982191669494       -1.37811517027620
H            0.97208298701435       -3.63424664565299       -0.30019866735039
H           -1.06157211929539       -2.94885474174289        0.36591521944576
H           -4.69368289039096        0.55991003314396        0.08802869471854
