31
 energy: -65.024001794022 gnorm: 0.000898621213 xtb: 6.6.1 (8d0f1dd)
N            5.95806696816686        0.04196383296025       -0.89300942373365
C            4.85074818230335       -0.05390098148542       -0.61017645546056
C            3.47932465952350       -0.16100517526362       -0.26945390059247
C            2.95655129267873       -1.43487785020238       -0.30225474660472
C            1.66183689149701       -1.86789688768065        0.00265191782997
C            1.50832009487096       -3.28046332365912        0.06784243174388
N            1.46670064280457       -4.42395197104360        0.11442637286216
C            0.47215656499492       -1.13489162940186        0.14743130460899
N           -0.59504428567516       -1.92224048346766        0.32711092977991
C           -1.79254230804673       -1.40747650620789        0.25742085042210
C           -2.02660606952287        0.01930269826088       -0.07984624850104
C           -3.39546954363937        0.14188460591978       -0.19392781423178
C           -4.20661769277892        1.22578584220982       -0.51594585460839
N           -4.94339825773078        2.06990832891219       -0.77366504136830
C           -3.90839518104993       -1.18869025546176        0.12436497613453
N           -2.94233241171465       -2.07171994632212        0.38294122244388
N           -5.19289548072909       -1.51147779346930        0.16097229994204
H           -5.44883644759792       -2.45643087746246        0.39642689246399
H           -5.90103958278024       -0.82655461676450       -0.04760963700352
C           -0.91028471364315        0.86367153577272       -0.15229113335167
C           -1.11479720522093        2.21336524475526       -0.51978236335719
N           -1.33333873740633        3.26127768348696       -0.93126553950610
C            0.36855477488706        0.32232957946581        0.05510499978437
C            1.45233868645671        1.21881957848520        0.29434920582683
C            1.08574289133187        2.48721705892767        0.81137901418051
N            0.89104056146836        3.48153413709092        1.35249776227707
C            2.83998376804814        1.05079795201419        0.15201042699936
N            3.64700104741122        2.10323869560031        0.39622218964026
H            4.64251239924267        2.02141647236180        0.27390800875489
H            3.25990345832148        2.99408762946093        0.66157190363990
H            3.65499146422828       -2.22287035289153       -0.56372160241513
