33
 energy: -64.475698684386 gnorm: 0.000367684421 xtb: 6.6.1 (8d0f1dd)
N            6.14222642026443        0.86310077027957       -0.34575045604558
C            5.01273203438024        0.69807710032184       -0.22561739222768
C            3.61785885844595        0.51552375307607       -0.08670822844472
C            2.80684081718837        1.65903764051493       -0.22830990470524
C            1.41275081663964        1.69835400540899       -0.01703510222649
C            0.44171813681347        0.72318725852204        0.10327935622268
C           -0.90665852706000        1.20138528929790        0.22556027200330
C           -1.14509640907913        2.57925945838854        0.41594609463414
N           -1.32238089828099        3.70173327002730        0.57834490271570
C           -1.98368456370344        0.34495523873985        0.09962885559645
C           -1.74992557541147       -1.07739307977781       -0.17930475855875
C           -2.96377971668616       -1.69191993073615       -0.35264821239923
C           -3.98155838057279       -0.70651757609190       -0.16981771181772
N           -5.29662580427792       -0.92522395852633       -0.24876701504639
H           -5.94193983990810       -0.16803441932384       -0.09419014792688
H           -5.65291025824423       -1.84386274055599       -0.44752616948999
C           -3.37557452871347        0.54549619219113        0.10882086862531
C           -4.09009825614879        1.72137689867364        0.33521536516501
N           -4.74976461466706        2.64615173863749        0.51363963390406
H           -3.13581268855142       -2.72772029626028       -0.57355879845391
C           -0.42679527315478       -1.56880772542148       -0.17519682617787
C           -0.28064567074782       -2.93656060450493       -0.49594201819674
N           -0.27453246802649       -4.02152393956658       -0.87017774172411
C            0.65967840874749       -0.72385955862100        0.05157774176709
C            1.93509604666609       -1.31328477000308        0.31599745914921
C            1.94007619061942       -2.65155942815587        0.79402746704976
N            2.04031977680608       -3.67735195480975        1.29707240692745
C            3.20632954924546       -0.77730163571261        0.25142909554733
H            4.01221741387600       -1.47157246170203        0.46431436704089
H            1.02340647944591        2.71186720927062       -0.00804256060961
N            3.40168961635589        2.83388517842823       -0.53156471673979
H            4.40003290792487        2.88569110151733       -0.64543410786300
H            2.86447796091702        3.68172745937130       -0.57697837549289
