32
 energy: -53.541107379448 gnorm: 0.000518652224 xtb: 6.6.1 (8d0f1dd)
N           -5.22559929986941       -1.68738381765479        0.27509327749630
C           -4.27715787797491       -1.04857734947265        0.13071886755671
C           -3.11014402896899       -0.28848664646573       -0.04303253416504
C           -3.29766746919622        1.00333189005432       -0.61860722246809
C           -2.46261646380654        2.05969105112662       -0.54767265231894
C           -1.14411459175897        2.13965529913098        0.00978439654143
N           -0.73783922304240        3.43660869173801        0.25258552517587
H           -1.46667018777290        4.13090722504750        0.26164713374789
H           -0.00651133791781        3.58607461457462        0.92609441153754
C           -0.23189439922817        1.08660868474761        0.13045230057440
C            1.15037417518378        1.42301631665726        0.20166315749439
C            2.11528673207474        0.47604601837730        0.08032856074655
C            1.77009622820160       -0.92397903823176       -0.10064452713611
C            2.98280170975188       -1.58256085086546       -0.26674747062777
N            3.21600825382582       -2.93005762139120       -0.42219637156660
H            2.49665745269297       -3.44313732929669       -0.90784169392818
H            4.15404572937961       -3.13599101101701       -0.73024442156114
N            4.04035893898801       -0.71630502935452       -0.18889128456588
C            3.55376831897570        0.49413326246487        0.01472843706987
N            4.35740452491009        1.58381237826232        0.21582784643639
H            3.97870813772378        2.47576721513844       -0.05985193964765
H            5.32298836868444        1.43273685004897       -0.03137423425085
C            0.42439803082323       -1.28298931233022       -0.03872397186464
C           -0.57195931239958       -0.33800348927262        0.10903463956624
C           -1.90670209638548       -0.85047775830145        0.37152578871994
N           -1.96920253510515       -2.03371085206162        1.02268313391008
H           -2.86465481303444       -2.46117616783952        1.19343884788661
H           -1.13828763929236       -2.46317183579160        1.38627257139600
H            0.16696886250833       -2.32960823843116       -0.13554201352639
H            1.44150230239316        2.46281468231263        0.24792069280893
H           -2.83105957820807        3.00112946588965       -0.93848291564752
H           -4.27396258845695        1.16574257430612       -1.05882232458868
