31
 energy: -54.634765536682 gnorm: 0.000541147821 xtb: 6.6.1 (8d0f1dd)
N           -3.21796833883581       -3.76104545964993       -0.31159623291403
C           -2.65876339488484       -2.76111713389406       -0.20514980707375
C           -1.98891164049382       -1.52978850554403       -0.06750989968886
C           -0.61246320828360       -1.62484484004980        0.20265553965302
C            0.39003216071829       -0.67672992561277        0.20776138071742
C            1.71346411096792       -1.20128431509885        0.29834344416169
C            2.79428123946629       -0.41147870249065        0.08542477363256
C            2.62338294010893        1.00094916845966       -0.23484017141597
C            3.90199421327371        1.48124184140671       -0.46483301304839
N            4.84294021858729        0.51761665555203       -0.29931125874788
C            4.22014667257786       -0.60634834040298        0.02414526166482
N            4.88301612799396       -1.78005539362442        0.19943907081793
H            4.43282873197936       -2.50682846471164        0.72848179571758
H            5.88347130232768       -1.70726561280093        0.28290487304857
H            4.20469752458852        2.47697850477775       -0.73105824898867
C            1.34578623802275        1.54934205612857       -0.19824282603507
C            0.22897565583347        0.76954485133545        0.06545194330470
C           -1.02633778279209        1.44765567693562        0.27070343370668
N           -0.94865412448878        2.73532501832256        0.66273264476777
H           -1.78642218552082        3.28176647720213        0.77896027591585
H           -0.06114843563021        3.15619192425452        0.86898587408421
C           -2.32964876424386        0.95165462787716        0.07919876545670
C           -3.36426794095232        1.89919689468967        0.18460838918723
N           -4.21505059622384        2.67237476736024        0.26839278148598
C           -2.77350808490231       -0.37381275709192       -0.20296704439199
N           -4.07051806178564       -0.52669556192095       -0.54346038864741
H           -4.69173662516642        0.26446986927944       -0.56436421436566
H           -4.45028269672361       -1.45220428102375       -0.65563604770439
H            1.24625745642882        2.60238084297455       -0.42470552546380
H            1.82498370356517       -2.26229327281556        0.47992993930504
H           -0.27921854931283       -2.64829043072403        0.33949858876157
