28
 energy: -46.676334400230 gnorm: 0.000649961979 xtb: 6.6.1 (8d0f1dd)
N           -5.91102960119948        0.00533887576621       -0.14833376892064
C           -4.76573201017191       -0.08290058556382       -0.10289377977679
C           -3.37033107007949       -0.17481257724523       -0.04710392889603
C           -2.63854837391590       -1.32576456946604        0.21364586503510
C           -1.27325454823283       -0.97265280167253        0.18001591185383
C           -1.19648453694034        0.45082328271374       -0.11982771826862
C           -2.48619716995008        0.92264722324208       -0.25841359718043
H           -2.81236102928881        1.92418333416041       -0.47495931678447
C            0.06388335649264        1.08464253008931       -0.16572449907605
N            0.10333709342075        2.46571857276892       -0.34052846941407
H           -0.76518143436926        2.83939322339304       -0.69321283657533
H            0.90718824136604        2.82021375642787       -0.83778250552931
C            1.21828102384613        0.33088978389895        0.01571977950179
C            2.49125452975028        0.97929694899146        0.25930294299084
N            3.66505325351525        0.61474673052449       -0.19786622913641
C            4.10498550924089       -0.57020779578685       -0.54848086232686
C            3.54863374071874       -1.79478495970810       -0.21852400209459
C            2.23080968109242       -1.99759897719118        0.17447096890657
C            1.14357693119065       -1.11898819530309        0.18218070033845
C           -0.12603685975841       -1.70964818909497        0.33826453319185
H           -0.18797705729428       -2.77538277965770        0.50876245795531
H            1.97157291892258       -3.02913549137616        0.38521937783226
H            4.17142704939858       -2.67060872661316       -0.33502415931023
H            5.06486871798202       -0.54717279766120       -1.05271012035119
N            2.48983867603856        2.12607263572763        0.96101082850156
H            3.36953923003576        2.56654260885826        1.16963746907672
H            1.62857937831286        2.50874045995324        1.31182739709486
H           -3.03929984522303       -2.30267005377619        0.40740640186141
