29
 energy: -60.790131110521 gnorm: 0.000866454424 xtb: 6.6.1 (8d0f1dd)
N           -3.33747723005423       -3.74459903869237       -1.21353671604434
C           -2.88712578871100       -2.74630104171822       -0.86631673227897
C           -2.42358556335336       -1.50055077254163       -0.43948008984123
C           -1.10104640608605       -1.07573450124571       -0.26795265640515
N            0.00641078291903       -1.77402363967550       -0.35570098271075
C            1.15919931900074       -1.17414822992733       -0.07587599721453
N            2.15408675746526       -1.97116098523424        0.21084599647263
C            3.43682755913392       -1.71730770437446        0.36225451606509
N            4.14035346425845       -0.81144910811709       -0.33780251334098
C            3.66701484609323        0.32563308206432       -0.74505090495695
C            2.43264656853549        0.94863137533278       -0.43522219054127
C            2.38513147878298        2.31549688932807       -0.80854051812179
N            2.42035238241082        3.39756018217958       -1.18632041174790
C            1.25754871360571        0.31410145533089        0.00114483786547
C            0.07344513069322        1.02448763279144        0.28323280400043
C            0.08538652431882        2.38621544351218        0.66002269950269
N            0.05885806905407        3.46246152411826        1.05396820309846
C           -1.13864195755123        0.33764830263928        0.18727186426179
C           -2.47150671148455        0.70434423363931        0.32796690538633
C           -3.02068729227664        1.91261923241288        0.75948186662631
N           -3.55229307465875        2.86920515760104        1.11019252144822
C           -3.27406486800369       -0.42123292801528       -0.07131031740731
N           -4.60208462731040       -0.43704803878292       -0.08688396038596
H           -5.12256540882460        0.37824440287047        0.19670364758163
H           -5.09538317647599       -1.26417794453507       -0.38357608616941
H            4.35933968937661        0.90508214704551       -1.34839816889043
N            4.14190727085868       -2.54253326446240        1.14525740230821
H            3.68218996698101       -3.33799408248377        1.55360718201734
H            5.14525356279226       -2.48231198345521        1.14020619701601
