31
 energy: -53.851183666979 gnorm: 0.000462783247 xtb: 6.6.1 (8d0f1dd)
N            5.99783125108429        0.12296271655051       -0.46313269147761
C            4.85699835936643        0.16535149526545       -0.31328563980875
C            3.47080192536773        0.18008549259231       -0.16317718380640
C            2.67345680920758        1.29691020565288        0.09372518253675
C            1.33509927265221        0.86805008766860        0.13865583159598
C            1.32567934183761       -0.56388196817416       -0.09351614061890
C            2.64311789461479       -0.97496723772988       -0.28631259370379
N            3.10920985350987       -2.26250881601231       -0.46849645187349
H            2.46688087322230       -2.89875320924631       -0.91457307476949
H            4.05307318236504       -2.32225181926503       -0.82094554957020
C            0.11792538970049       -1.26141201966328       -0.02545564758379
C           -1.06881563285300       -0.58984760064273        0.14329767737918
C           -2.26897183605552       -1.35614088518458        0.43876517642975
N           -3.49986703568353       -1.10111142388592        0.08340092864387
C           -3.92737829611698        0.05829311044501       -0.43401127463714
N           -3.50875059390165        1.27441621624306       -0.15299489583702
C           -2.28892533833554        1.59501153709848        0.26112401818012
C           -1.10383064489378        0.87193333176759        0.23775866879433
C            0.14897768319292        1.57129581177348        0.32135259602663
N            0.21623516762204        2.91191739111086        0.55356883583981
H           -0.59178879612662        3.49541436708296        0.43840596494534
H            1.10966967575280        3.34802506007565        0.40560666372808
H           -2.25088320665875        2.64180636830522        0.54662679343047
N           -5.02746111494365       -0.02921805905366       -1.21023612283315
H           -5.50443744316038        0.81856156085268       -1.45932982735250
H           -5.49564680902200       -0.91367157161216       -1.28979457357229
N           -2.10161987222972       -2.51961258759886        1.09530308117189
H           -2.91885958021158       -3.05589108040294        1.33001639048288
H           -1.20557742301866       -2.77846596604739        1.46615035576528
H            0.12167037855759       -2.33904801160067       -0.12436377658731
H            3.05048865755743        2.29457259693523        0.23036659908128
