29
 energy: -56.788036339360 gnorm: 0.000654565138 xtb: 6.6.1 (8d0f1dd)
N            6.23054530622058        1.21754838901092        0.00275709437617
C            5.11275810633899        0.96560026900841        0.00189611436801
C            3.72766588363216        0.65762505603654        0.00112563710431
C            2.85581942125499        1.75112793633854        0.00152475806331
C            1.47619264534155        1.75876843038102        0.00099778057531
C            0.53532693678205        0.71995902330967       -0.00016533392799
C            0.84009538233008       -0.71878286031335       -0.00112149713967
N           -0.09722585821842       -1.65321268937294       -0.00228745359559
C           -1.37433005794988       -1.31133060213840       -0.00262955657107
C           -1.81512218808417        0.10284408349333       -0.00170662730499
C           -3.20527072440456        0.10172887144762       -0.00231671416384
C           -4.09333049377331        1.17649517975600       -0.00179931656954
N           -4.88800303111865        2.00742174321026       -0.00212300783487
C           -3.62818350710603       -1.27463473354567       -0.00365097693078
N           -4.90592834568931       -1.65821242433962       -0.00453791445778
H           -5.63903592178195       -0.96755930386158       -0.00433326544988
H           -5.14849176838010       -2.63393735582640       -0.00541592186465
C           -2.49652501359467       -2.11650969189439       -0.00378036549010
H           -2.50774230364181       -3.18788726544627       -0.00460377989517
C           -0.83256150656104        1.08920743810168       -0.00042284854216
C           -1.22082325780022        2.44919806548312        0.00106220294714
N           -1.55111492197634        3.54756029022885        0.00065761318036
C            2.14595176239448       -1.27924722874845       -0.00088958080177
C            2.14824670039353       -2.70360930569416       -0.00206786953512
N            2.22551165361806       -3.84644492842587       -0.00205971952534
C            3.40445850222944       -0.70003110385890        0.00007239864749
H            4.24115306996253       -1.38997236946194       -0.00001018153807
H            1.03378091280699        2.74974854753990        0.00154438734433
H            3.33341173587505        2.72341678208206        0.00236969343218
