35
 energy: -60.717331315477 gnorm: 0.000878507638 xtb: 6.6.1 (8d0f1dd)
N            4.86557125918836        2.30695961021632        0.75447026677307
C            4.01087388525881        1.57325041059632        0.50760772643308
C            2.99314114328677        0.66337735957591        0.19538250434086
C            3.31565075747140       -0.70143036194411        0.24542729200339
N            2.60633447145387       -1.68800740356607       -0.30168634125933
C            1.33029814368567       -1.72130899556139       -0.57715613528289
N            0.96867772923999       -2.77921998402165       -1.33507573645016
H            0.01680734831364       -2.89235660260292       -1.63317636964738
H            1.69203346042241       -3.37232176562176       -1.70283721334369
C            0.26200447063912       -0.83845731697150       -0.15015063679054
C           -0.99235360557140       -1.36709961433559        0.12383017003936
N           -1.21651220543929       -2.73136113643689        0.31283738818442
H           -0.40776579022691       -3.25004401387383        0.62620305435388
H           -2.02411870493638       -2.89889031003639        0.89625339517627
C           -2.09731951434976       -0.49892576461669        0.19107984649220
C           -1.92307112429821        0.90352282696073       -0.11027402302925
C           -3.23919077065544        1.44776092059310       -0.03207254315688
N           -4.12913354010209        0.52205248884081        0.29587216304603
C           -3.46001842350723       -0.65550780849866        0.42868993789445
N           -4.15813106116505       -1.80647309075646        0.78043200807660
H           -5.14854594585875       -1.60453088447315        0.83558101927556
H           -3.98011534278384       -2.59640864639269        0.17274052414399
N           -3.60302334014365        2.77403018698995       -0.22290164065286
H           -3.27491181460838        3.16394561668901       -1.09804219817666
H           -4.60578063897640        2.87952419471688       -0.12804418685696
C           -0.67954745824067        1.46872834940705       -0.30170084837354
N           -0.60212087949775        2.81028390193570       -0.54980718496369
H           -1.38385535675010        3.35028343742904       -0.21207158410863
H            0.29139676134608        3.26950719356317       -0.49654182782125
C            0.48346253866948        0.61538353454442       -0.20733946602778
C            1.71822054532937        1.21054344279572       -0.10063043300264
H            1.75489705029404        2.29277560964033       -0.14065272297115
N            4.49284970073343       -1.09053493947411        0.78995622335219
H            4.77616477807955       -2.04768841642848        0.67478057635330
H            5.17658889020688       -0.39805307087358        1.04369725357904
