25
 energy: -43.505767765315 gnorm: 0.000836921323 xtb: 6.6.1 (8d0f1dd)
N           -0.87491512583477       -3.93098643594879       -0.00375047261076
C           -0.98803479335129       -2.78963218696973       -0.00626664708111
C           -1.25727331675174       -1.39304335038138       -0.00807358082972
C           -2.62874834713739       -1.14522723919251       -0.01600790060818
C           -3.31524353622295        0.05078553264455       -0.01215773170826
C           -2.79167565627013        1.34555247269660       -0.00933442176280
N           -3.67826934968195        2.38052110186799       -0.03771180449890
H           -4.65895805771930        2.20216368731649        0.08234459710746
H           -3.35644068096698        3.32375818963648        0.08278306361780
C           -1.42833062432249        1.68712396941732       -0.01884834775571
C           -0.25236534533325        0.95256101192771       -0.01701895205359
C            0.93010826698233        1.72662897352657       -0.02524385209966
C            2.15910419176263        1.12664137791420       -0.01053369426086
C            2.26625365541691       -0.34313856832860        0.01416022375083
N            3.56041067757432       -0.65841781583901        0.02873093888296
C            4.17538949005122        0.53901908487570        0.01251345717386
N            3.41194106928492        1.62521479331760       -0.01019486151696
H            5.24856471241899        0.60889166577283        0.01937240255160
C            1.12055935254545       -1.11739017643422        0.01625794117407
C           -0.13896446253317       -0.52184794628319       -0.00159788136105
H            1.21064851647636       -2.19320496889034        0.03062872897184
H            0.86029802318566        2.80429918773107       -0.04052768642045
H           -1.26524015903339        2.76099652255168       -0.02831569387661
H           -4.39593336189672       -0.02020469213312       -0.01328134859527
H           -3.24693781414328       -2.03580545259600       -0.02073305089043
