34
 energy: -56.987928403209 gnorm: 0.000558207959 xtb: 6.6.1 (8d0f1dd)
N            4.56245785917956        2.45483110619731        0.93122392170972
C            3.80376462901028        1.64188050749300        0.62596712461907
C            2.89464303063196        0.64105381796904        0.25340389625681
C            3.38717468304783       -0.66201570673101        0.15349450855563
C            2.64851551653394       -1.78237409736864       -0.28617758100403
C            1.29367712549273       -1.95622558009170       -0.43139206903698
N            0.89241446449249       -3.18713642353640       -0.86492118179463
H            1.58999315500410       -3.82696471579641       -1.20442900937649
H           -0.04110312384338       -3.29536258254900       -1.22009840903295
C            0.21672077739791       -1.02965650034082       -0.12925953132233
C           -1.02742641413179       -1.54530921499261        0.15214591806566
C           -2.14133849467408       -0.70825881939310        0.26472115245150
C           -2.00469281102862        0.69790232681799       -0.05827569123621
C           -3.33784618640615        1.21021551195300        0.02552010400702
N           -4.20401347575512        0.26120048093066        0.34140793371431
C           -3.50234947605307       -0.90226473414503        0.47807559332669
N           -4.17107571100014       -2.08085969417098        0.73013599960034
H           -3.65460440270794       -2.76156852338309        1.26599864075916
H           -5.11532616032179       -1.93301008658440        1.05329392605508
N           -3.73345817920419        2.51771685981030       -0.20338828769901
H           -3.17273222007420        3.20854034458981        0.27867653825352
H           -4.72016236958072        2.63303712940759       -0.00916465361595
C           -0.78911608142093        1.23691293672152       -0.39277925883209
N           -0.69512317691211        2.54258108935031       -0.79695678252001
H            0.11736955631066        2.81174297213579       -1.32740134711329
H           -1.56316264202652        2.95160883891642       -1.10591073267170
C            0.40363866886674        0.42191486561410       -0.22085328702510
C            1.58124424006445        1.09669737630066       -0.04568883840978
H            1.51715009409765        2.17864993212305       -0.03307963077614
H           -1.16372207631959       -2.60679770400923        0.30402146772479
H            3.25632806341808       -2.65350116169228       -0.51098262076778
N            4.70864447895189       -0.86733837975388        0.39120536034642
H            5.27523257080988       -0.10951679620699        0.73161882006125
H            5.08522431914847       -1.79727338848409        0.39794647852504
