31
 energy: -54.644311107485 gnorm: 0.000746583950 xtb: 6.6.1 (8d0f1dd)
N            6.66357866852318        0.29949701982362       -0.26086954728975
C            5.52820296424140        0.14283063671593       -0.17666229030241
C            4.14317705040000       -0.03566679495970       -0.07888739121148
C            3.49461131446928       -1.22440203763154        0.24006809230684
C            2.11131071632461       -0.96291347181786        0.22999681077518
C            1.93020535944362        0.44002524452233       -0.10611490886155
C            3.18585066097044        0.98984380087221       -0.30180093319810
H            3.44118953196356        2.00291521431915       -0.55713667083069
C            0.63706783544574        0.99843014508600       -0.14468988845294
N            0.53660515338160        2.35657676221981       -0.41688610567644
H            1.38625482757323        2.74514868170172       -0.79703647520460
H           -0.28849781088048        2.65450020554752       -0.91544121158606
C           -0.48250941934657        0.19242884864734        0.11053864318141
C           -1.75682153790482        0.79552293974429        0.39171119385054
N           -1.75663383735084        2.04735798564968        0.89502385642493
H           -2.62791701703523        2.48053193510670        1.15344870495997
H           -0.88945711448159        2.48358149175618        1.15895858535621
C           -3.02515000610940        0.23550160755932        0.14179359300727
C           -4.14627868989179        1.06029689380973        0.31239957772512
N           -5.07891459284011        1.72549991276471        0.43956853906609
C           -3.29021978244928       -1.07797714041532       -0.35358573201248
N           -2.55352645387603       -2.14931562030875       -0.14409460963177
C           -1.31104813378355       -2.20201239244516        0.27341817036279
C           -0.28871349904307       -1.25044539758814        0.26745575965623
C            1.01191574700231       -1.76661170665841        0.40421156059574
H            1.13453779219870       -2.82521335759322        0.58354920427316
H           -1.01981323442298       -3.21128720085347        0.55155559889341
N           -4.45523719311556       -1.29755059847453       -0.99248641296806
H           -5.15438073017590       -0.57726235021906       -1.05435503613644
H           -4.69208502084679       -2.24580358014218       -1.22830700126495
H            3.96446584631910       -2.16590709493607        0.45238989429439
