29
 energy: -51.190525605739 gnorm: 0.000658784173 xtb: 6.6.1 (8d0f1dd)
N            3.34203495384196        3.52445829144132       -0.24853884535112
C            2.67113392794831        2.59519677707320       -0.16021485469315
C            1.86254374727220        1.44351759729031       -0.05111222806833
C            0.51534058928290        1.68359718449686        0.21159447112987
C           -0.59426311501096        0.84775492355089        0.21703957163378
C           -1.84035580121467        1.51805523664497        0.29292479546498
C           -3.01647129091409        0.84919654206414        0.10823733181110
C           -2.99508961941027       -0.58378380324827       -0.16969499891279
C           -4.32692985896542       -0.92936568918294       -0.36870732915839
N           -5.13780073408339        0.14058182593806       -0.22160469040532
C           -4.38961067227042        1.19518429886074        0.05433248258903
H           -4.82958802337770        2.16250092101269        0.21062638633171
H           -4.74071163617675       -1.89370368685778       -0.59923839572067
C           -1.78861375886047       -1.26728085709264       -0.13427973185862
C           -0.58523885067542       -0.60740924460622        0.09657413644818
C            0.58978174598226       -1.41464490493020        0.27986076872837
N            0.39078493447999       -2.68489510735306        0.68006367445833
H           -0.53147484261022       -3.01506904152332        0.90066827293528
H            1.16817818577068       -3.31942022776336        0.76621002929515
C            1.93920905885647       -1.06135031061890        0.04864417786964
C            2.86067826499195       -2.12716015960590        0.08969035129168
N            3.61763442937341       -2.99444400865920        0.11643532563770
C            2.52255690282145        0.20303915469372       -0.21152538471402
N            3.82464359714510        0.23229382913032       -0.55485066226306
H            4.36071718676029       -0.61790673878636       -0.60993086462190
H            4.29480219106188        1.11620140777004       -0.66268434484557
H           -1.80722807228216       -2.32894000946534       -0.34164539170346
H           -1.84115839598718        2.58874816909641        0.44514829264165
H            0.28885941104690        2.73604791332493        0.34800419334988
