31
 energy: -54.640129537344 gnorm: 0.000970234568 xtb: 6.6.1 (8d0f1dd)
N            6.31000661514992        0.26827734906258        0.39783367442315
C            5.17581595290381        0.10780355293169        0.28640276939693
C            3.79363687696312       -0.04217463871600        0.16404893259657
C            3.07879875159175       -1.26647245894008        0.21934988605293
C            1.73532866393877       -0.97751843086962        0.07349698013581
C            1.59609941278552        0.47250825146954       -0.07660430538779
C            2.89661734705418        1.02713651308030       -0.00176270943112
N            3.23754375528895        2.35279356370933       -0.17140404355012
H            4.18436595361266        2.58065729925790        0.09407055752060
H            2.55394156611721        3.02712421367734        0.13616236261624
C            0.35594132167042        1.03370915258864       -0.23900241820575
C           -0.82060598921257        0.26013725607142       -0.21303995120255
C           -2.05946066800131        0.93582795820738       -0.35634877079330
N           -2.08922819213983        2.14876098603118       -0.94852663245123
H           -2.93438368916952        2.69521859930620       -0.92378079033562
H           -1.26318409353922        2.55035865297586       -1.35444287456908
C           -3.30337235490362        0.50466936308331        0.21400108340735
C           -4.30788617772225        1.47769073104132        0.36502524700118
N           -5.12139923498456        2.28355722413250        0.47679134300640
C           -3.59265007442543       -0.76947919464132        0.68379893776057
N           -2.99632449857186       -1.88967513661103        0.37056599043303
C           -1.80890429315501       -2.06884734443774       -0.16986195666453
N           -1.64291803657305       -3.26029154345529       -0.76864515534416
H           -0.75950501130922       -3.52680407958143       -1.16282766187386
H           -2.41187039132845       -3.90860630145585       -0.77053487339062
C           -0.67402981074364       -1.18485600007776       -0.06984853881322
C            0.58315193209895       -1.75408793239680        0.04877058215712
H            0.67593573508512       -2.82365036587395        0.18281604317519
H           -4.49569797949887       -0.89783033853420        1.27186627407956
H            0.28352721584174        2.11210895383540       -0.29582096481762
H            3.52598390537706       -2.23365510007170        0.35241592946789
