30
 energy: -50.917330868220 gnorm: 0.000770157079 xtb: 6.6.1 (8d0f1dd)
N            3.74309621140594        3.25403160994562       -0.27618101894490
C            3.00227236137549        2.37851645931761       -0.18745952147468
C            2.10752753899055        1.29378129792913       -0.08678070727970
C            0.75859600167193        1.63706898145060       -0.04058081456549
C           -0.42079384722225        0.90057083515166        0.00491401982381
C           -1.59946358654557        1.65012464039310        0.10690482417945
C           -2.83730208596325        1.04695927475783        0.12576329170722
C           -2.94343587090825       -0.39655392798990       -0.02751774374272
C           -4.30951081201865       -0.70673333186165       -0.03540265597207
C           -5.02326270516830        0.48345256529810        0.11777176640363
C           -4.14217020564199        1.55457780836913        0.20934644498780
H           -4.40759552609707        2.58892006645594        0.32241772346533
H           -6.09592145971573        0.55648394286250        0.15235886251865
H           -4.75314055778155       -1.68240784239664       -0.12599863448267
C           -1.80027659017117       -1.18126097880523       -0.15568039460312
N           -1.95039548086982       -2.52627275524487       -0.32931655555543
H           -2.88975621152819       -2.84775641681344       -0.48848220847567
H           -1.22298736264559       -3.07542110975926       -0.75127200811223
C           -0.50378984976781       -0.57364418610660       -0.05133095751416
C            0.58555925591441       -1.41123468990727        0.05825863661669
C            1.97276984213557       -1.19671236983236        0.11964348147227
C            2.73704451205604       -2.37107061650216        0.26805465644720
N            3.35947444371973       -3.33157650309388        0.38611067639359
C            2.70157602862963        0.00624393618553        0.00852750111720
N            4.04518297566634       -0.06389621418436        0.00547472261571
H            4.59749074485811        0.77553256373928       -0.05968546164375
H            4.50756114758136       -0.95382753013379        0.09595282671576
H            0.35341893778429       -2.46770742314379        0.14019357087247
H           -1.52987437253077        2.72713174714685        0.17045778811586
H            0.60256243108714        2.71206229507298       -0.04733676668584
