31
 energy: -53.852364314096 gnorm: 0.000551879841 xtb: 6.6.1 (8d0f1dd)
N           -6.15318333035494       -0.14386927346593        0.58079383600190
C           -5.01313309859134       -0.07845531449765        0.44242098043038
C           -3.62757926650486       -0.00426228430428        0.27595103276009
C           -2.73306122109038       -1.09360354677184        0.42780300048480
C           -1.45481546203564       -0.62261261833731        0.18623481500079
C           -1.54750715930903        0.78485907124081       -0.11849414988712
C           -2.90870012709366        1.14037040035538       -0.05929491639576
H           -3.34195742828405        2.10982469772522       -0.22930973339478
C           -0.40939356670498        1.55235141178297       -0.36181972392002
N           -0.56829353910637        2.86301827762319       -0.68018069973482
H            0.20793856438087        3.49712662319543       -0.71615248572136
H           -1.48206462387840        3.25914842603487       -0.55014954141912
C            0.87717869467799        0.93290903242707       -0.23020654381171
C            2.00712855071269        1.73703875119024       -0.18619175526767
N            3.23703311468833        1.49647843481999        0.24559894946589
C            3.74492518781600        0.29754089130315        0.45709162103824
N            3.39605750875457       -0.85236190096779       -0.12652753378881
C            2.18317807419106       -1.18208739218441       -0.48608584869687
N            2.09595020122682       -2.28926029379523       -1.24413270392385
H            1.20045473142728       -2.62536118383916       -1.55188770718545
H            2.94525587933078       -2.72718223876300       -1.55569981138463
C            0.93668098363506       -0.53073037353779       -0.11381606965389
C           -0.20209079225220       -1.27874584317101        0.11752695135790
N           -0.17868452098650       -2.66750233332342        0.23261419704992
H           -1.02251727430238       -3.03659193852852        0.64453854832943
H            0.65628976757010       -3.05567714729207        0.64682121654934
N            4.84911124035192        0.24682951975947        1.23059754632300
H            5.26280456600191        1.11329214077890        1.52494753200761
H            5.38531880956875       -0.60184138043729        1.25708283035632
H            1.89318562782553        2.79242292621197       -0.41506584838796
H           -3.03721161486445       -2.09392370633150        0.67995931531855
