26
 energy: -48.021712062847 gnorm: 0.000819651742 xtb: 6.6.1 (8d0f1dd)
N           -0.18908137069175       -3.77878762718970        0.02812964037366
C           -0.66589637145825       -2.73690003313401        0.01919251261054
C           -1.35500876036087       -1.49310995002083        0.00979861082857
C           -2.73518021131773       -1.60224935211753        0.00757112197538
C           -3.70290988265743       -0.61126888695547       -0.00332815943120
C           -3.53062503467419        0.77257485062882       -0.00657892355799
N           -4.64732963931149        1.54477317735924       -0.00873471782872
H           -5.55795410592842        1.12422107360845       -0.04632950710964
H           -4.58185749617646        2.54545525316980       -0.04558551918509
C           -2.29773762503806        1.46231508252868        0.00476798354002
C           -0.98552665798573        1.03848767520735        0.00868538123801
C            0.00355646474866        2.06818744186123        0.01811161086585
C            1.31852546434409        1.72857402569531        0.01697332247033
C            1.68500335043878        0.30117839707275        0.00024256698761
N            0.77769019201575       -0.66697387032938       -0.00288042764846
C           -0.50134983472953       -0.35117686699088        0.00385066749527
C            3.07477478421375        0.28973611476770       -0.00973932348785
C            3.95650878391823       -0.78959924588314       -0.03129147499848
N            4.71473418566545       -1.65296178144006       -0.05004616187275
C            3.44963260694201        1.67636780084142        0.00580789941138
N            2.43769958605197        2.50903717841160        0.02135971757330
H            4.46147636055655        2.04354498665074        0.00558052969677
H           -0.30337738629050        3.10461631623104        0.02323321064802
H           -2.41263998351934        2.54297363778223        0.01054611836469
H           -4.73024764625784       -0.95400602782962       -0.00826788799251
H           -3.11026410559762       -2.61906881582570        0.01221102663334
