28
 energy: -51.465977514989 gnorm: 0.000948997879 xtb: 6.6.1 (8d0f1dd)
N           -0.74141865199717       -3.70789131372421        0.05721350614720
C           -0.99621673892194       -2.58713130358494        0.03430630915463
C           -1.41181014102316       -1.23321685888227        0.01337742698614
C           -2.81932880280408       -1.08701544551332        0.00218384716014
C           -3.54572856482939        0.11125192473878       -0.01866025528274
C           -3.10776327025607        1.42510859415584       -0.01058650489545
N           -4.04545273862978        2.40754383805124       -0.01467202384236
H           -3.76619308873447        3.37033735744768       -0.05638464653814
H           -5.02173182114672        2.18722914411385       -0.08435703788565
C           -1.76542184780617        1.85905503674896        0.01959559187889
C           -0.56402102238114        1.18384026199479        0.02427195111001
N            0.47530242336411        2.05224707508009        0.04440380511346
C            1.68902915397658        1.59118909093807        0.03261974292145
C            2.00166597966717        0.14221321908510       -0.00292554915650
C            3.39657068172273        0.08970402980312       -0.01604904159878
C            4.21843729868800       -1.03347175587879       -0.05454523005462
N            4.89500891755395       -1.96306088599025       -0.08920762441841
C            3.81367938775090        1.45291097976420        0.01488299776746
N            2.82364683347992        2.32460646927696        0.04346662220805
H            4.83575061795179        1.79128741622784        0.01629233519127
C            0.95016302489583       -0.75005459235971       -0.01003046927902
C           -0.36589861087309       -0.27357372707280        0.00663407974473
H            1.14339121395491       -1.81404934522888       -0.02814021018405
H           -1.62663752598373        2.93395619466833        0.03593013364772
H           -4.62254987648740       -0.01809309191892       -0.03756187389103
N           -3.56527765646076       -2.22310297765026       -0.00001966224769
H           -3.12696589545713       -3.12702365067766        0.02956400214409
H           -4.56648264231345       -2.17238913461302        0.01381310109922
