25
 energy: -43.488309610526 gnorm: 0.000579349087 xtb: 6.6.1 (8d0f1dd)
N           -0.66974218080881       -3.90198587020662       -0.14912883835764
C           -0.87788518919393       -2.77648348150940       -0.08146220512476
C           -1.22268092955281       -1.40299988836059        0.01403816247905
C           -2.58405177296809       -1.14766890353563        0.04905921912296
C           -3.26129992443437        0.06136488793535        0.06673372865009
C           -2.73959459213164        1.35316478306498       -0.00444594063773
N           -3.62368402637838        2.38656910541353       -0.08187066611819
H           -4.60416912028313        2.21831645884645        0.05303293985329
H           -3.29406323132824        3.33285839812951       -0.01905978623118
C           -1.37536411282032        1.70101778577282       -0.03649266547013
C           -0.21948298223675        0.94940227942636        0.04726095768242
N            0.90258960608016        1.71275163812679        0.04348486096321
C            2.05770330512169        1.11845788422199       -0.03306715795580
C            2.16609620090752       -0.37745998017417       -0.04106267704612
N            1.06706164956491       -1.11949938216889        0.01881639398035
C           -0.10749087800641       -0.51794996410706        0.05378637620931
C            3.50008216444345       -0.68757142179637        0.01266833682013
C            4.22186691241242        0.53795100500909        0.01154758495329
C            3.37175900607007        1.62332299670752        0.00389473703579
H            3.64453432092755        2.66061358608089       -0.00251454094838
H            5.29666093464113        0.59813533194815        0.03763434643391
H            3.92877266006903       -1.66986157396973        0.05330211799618
H           -1.17250260032491        2.76204623570922       -0.13935107920603
H           -4.34201093699056       -0.00455245759136        0.10048777748416
H           -3.21110203357976       -2.03184806707268        0.04861014253184
