32
 energy: -53.564461224334 gnorm: 0.000642691719 xtb: 6.6.1 (8d0f1dd)
N            6.30595186002178        0.24377282645368       -0.37447709466065
C            5.15884539605359        0.23298383507474       -0.28321576270900
C            3.76629253773123        0.21144473470744       -0.17003593795782
C            2.93873241852931        1.34240123668313       -0.07559827798008
C            1.62738152534711        0.88640174902185        0.03883006741575
C            1.65130434025876       -0.56204665409111        0.00172721303016
C            2.98167446755562       -0.95679798268448       -0.13643952875924
H            3.37910367615309       -1.95578189228856       -0.18380170674001
C            0.45665016297912       -1.29084148661999        0.06965018752929
N            0.55518927040794       -2.68251881505190       -0.01808012680453
H           -0.18522118219607       -3.13499266010505       -0.53532547039593
H            1.46956558330905       -2.96797775144679       -0.33846708693499
C           -0.77795935753511       -0.62684432265867        0.20658039556292
C           -1.98251680174990       -1.39019157040032        0.41617952153157
N           -1.85794408136059       -2.61681826651993        0.99122604791775
H           -0.98913983563188       -2.86173856297376        1.43502787929443
H           -2.69051094465002       -3.11397994660333        1.25412965779112
C           -3.25612821765327       -1.06112718194949       -0.03064659002484
C           -3.67493966149276        0.17221844679235       -0.54437915278802
N           -3.15991825577204        1.34673687285800       -0.22751404487385
C           -1.99458745689115        1.59882017722554        0.32583806420744
N           -1.93710750969001        2.78957912576118        0.95472216850284
H           -1.08556227769570        3.11559161306003        1.37410161963803
H           -2.75493084999181        3.37326529344438        0.94989482340904
C           -0.78252008888029        0.82892177321918        0.21279485656641
C            0.40719014568843        1.53867210510024        0.14387699855370
H            0.39334686229977        2.61921771133997        0.09600435127850
N           -4.82945023750833        0.23391756841352       -1.25409699940602
H           -5.09572638585736        1.12160299152997       -1.64092418058174
H           -5.24628427701629       -0.60273930267215       -1.61767710635370
H           -3.99923689648043       -1.84850463826019        0.00343792755085
H            3.26954933421819        2.36462028694062       -0.08066159840951
