28
 energy: -52.268481393006 gnorm: 0.000665848838 xtb: 6.6.1 (8d0f1dd)
N            6.48049560132836        0.19700874612422       -0.00352853016988
C            5.33691690572256        0.10833597887503       -0.00244909790742
C            3.92832493537226       -0.01507809374693       -0.00135464445986
C            3.42237143035407       -1.33619426211447        0.00026593492860
N            2.20272652231104       -1.77637155748786        0.00142519772441
C            1.02993433654568       -1.14101008071494        0.00158907604588
C           -0.05787171720442       -2.01168470133814        0.00301634845271
C           -1.36447165131396       -1.55423698395076        0.00354858522565
C           -2.59177052290608       -2.20342566851473        0.00494267716264
C           -3.60097750755161       -1.22680473653051        0.00482828650165
N           -4.92303005150017       -1.42975309399195        0.00584491052321
H           -5.54987164308038       -0.64210335767098        0.00560188813734
H           -5.30046019468616       -2.36098099649464        0.00688015352274
C           -2.99433459010084        0.08107914781998        0.00325922637920
C           -3.74066899916657        1.25795650485198        0.00211346294948
N           -4.44385662213687        2.16831972436061        0.00366872366073
C           -1.61595600285969       -0.10451153839357        0.00262014615785
C           -0.53917242437836        0.78599482298175        0.00127462127560
C           -0.81840151351505        2.17162677398419        0.00161720519689
N           -1.04898727748604        3.29575023680855       -0.00170366378557
C            0.79426227104087        0.32638919002358        0.00057920681053
C            1.80499431240362        1.29400418548143       -0.00095788903415
C            3.18393438874428        1.16252904382180       -0.00190447741639
H            3.75223978022831        2.08472464442587       -0.00319177894239
H            1.44831149694938        2.31825013576172       -0.00158954230643
H           -2.75158501687461       -3.26415733757305        0.00589307313373
H            0.15610465170877       -3.06925077679625        0.00373177546388
H            4.16654333435407       -2.12925219280396        0.00058215887165
