23
 energy: -44.050415585105 gnorm: 0.000771275754 xtb: 6.6.1 (8d0f1dd)
N            0.57713667212901        3.83990821481135        0.39514435462164
C            0.84447675042618        2.73887752699143        0.21093765106632
C            1.22223832684589        1.39873663132643       -0.02913325324546
C            2.59735857472174        1.14139722518922        0.03904997131534
C            3.25715931212965       -0.05511844749075       -0.04592195297780
C            2.65259340239341       -1.34341721749576       -0.05347746619889
N            1.39783093873875       -1.64385551527081        0.18141211404808
C            0.28005157574552       -0.95440014583945        0.08961394174369
N           -0.83521095772678       -1.59992112811741        0.34293634489672
C           -2.02314417279992       -1.06086935324425        0.30893700304725
C           -2.14535204859482        0.35440638197666       -0.19441668956875
N           -3.40539696826548        0.60915134413225       -0.47426291709059
C           -4.11187973886327       -0.48448357525208       -0.16231941507179
C           -3.31792641144544       -1.56196076636407        0.23505489500735
H           -3.63736368210830       -2.54772815515960        0.50797658068861
H           -5.18195121353336       -0.46775364433217       -0.26200753078612
N           -1.04640829266819        0.98485914153476       -0.46303945352184
C            0.14728260701050        0.49498848177197       -0.24197406008072
N            3.45971358321914       -2.41434669883263       -0.19996049086627
H            3.05552900876732       -3.32969236248458       -0.10156681644087
H            4.45733158635979       -2.31374113142227       -0.24773341425762
H            4.33727136985362       -0.03800858301367       -0.00844889550567
H            3.21025404876435        2.02673614338619        0.16383290397807
