34
 energy: -56.982546644836 gnorm: 0.000770638942 xtb: 6.6.1 (8d0f1dd)
N            5.02211415151748        2.00214536236865       -0.62009863915249
C            4.11697029180827        1.30830199148468       -0.44156290436947
C            3.04628694448456        0.43772058570410       -0.22504039970914
C            3.37382907391353       -0.93309934907287        0.05816238733914
N            2.57364061987586       -1.96837609117157        0.01196899898383
C            1.24820343939172       -1.97927129850105       -0.12987614000353
C            0.25750206157847       -1.03178194870492        0.01796998432236
C           -1.09745436715666       -1.49826093821067        0.04287054656250
N           -1.40010624172279       -2.83441352358037        0.15702014785103
H           -0.70487654992664       -3.43469822573286        0.56821185163849
H           -2.34377873599875       -3.01335598835677        0.46650690438154
C           -2.13475858810553       -0.58688386311613       -0.05741271292686
C           -1.88485365333943        0.83934065619791        0.00962693350714
C           -3.13780589293032        1.48121203926180        0.00007205239334
N           -3.36148528578596        2.85960876164600        0.05430908849633
H           -2.79295494718114        3.38518792083657       -0.59785547274910
H           -4.34071266220364        3.08684495177043       -0.06137291033775
C           -4.13273627499526        0.49760416476389       -0.07003752556203
C           -3.54001146286783       -0.76038769290336       -0.10779894328364
N           -4.20999249884592       -1.98627015937079       -0.17590822966771
H           -5.20824819723441       -1.86157465429102       -0.29011358602624
H           -3.84362793081950       -2.60143899855162       -0.89253955664944
H           -5.19190291111521        0.68933334052005       -0.09697979471899
C           -0.58892405948330        1.32534395014920        0.15376668310184
N           -0.41236015066330        2.67396805615156        0.36784749316732
H            0.44501278995414        2.96394220196396        0.80871497647368
H           -1.23436091532526        3.14047496707348        0.71986305075063
C            0.51369873701529        0.43190311050850        0.04759041944444
C            1.76500527681230        0.99142133008142       -0.15539493696395
H            1.77762313273711        2.06732224235429       -0.29582307074094
H            0.92090212812403       -2.98979383400557       -0.36107567039286
N            4.65529438041213       -1.20954465933182        0.37213727815850
H            5.36207527831832       -0.49700376146083        0.30600395213374
H            4.91600664235576       -2.16978421107484        0.51292742874720
