33
 energy: -58.090350222539 gnorm: 0.000751020280 xtb: 6.6.1 (8d0f1dd)
N           -4.81783778143272       -2.68058406113406        0.38016540176451
C           -4.05207113535756       -1.83062900291827        0.24826539421164
C           -3.14263226759258       -0.77539813906923        0.07788139220071
C           -3.62185273168971        0.52892684173167        0.33279892542329
N           -3.05290483578388        1.65806464986441       -0.07299132714249
C           -1.81133576656678        1.88947460409834       -0.40416227348562
N           -1.61422951708786        3.06635614990672       -1.02453962665900
H           -2.40859201112032        3.65554093604301       -1.20481686823585
H           -0.69693072831540        3.35299141052283       -1.31438147320887
C           -0.62660890621045        1.09099739436870       -0.13457285718634
C            0.55763136205955        1.73785194180280        0.12178256013790
C            1.75424105926313        1.01937843967030        0.22990862008581
C            1.75125221231368       -0.40098625193432       -0.06922983737895
C            3.09502344778665       -0.84985641025539        0.02392458965518
N            3.54790036932825       -2.15059075118197       -0.18734398793215
H            4.54625192590027       -2.23129198512487       -0.03345553977400
H            3.04444190381304       -2.85242737360815        0.34128272295974
C            3.88693018770134        0.26381927749279        0.33727182848014
C            5.26933442550864        0.21764508874392        0.51659415421503
N            6.40771917058449        0.13286027936328        0.66677004664611
C            3.05916502811992        1.41011516520089        0.45932653554573
H            3.40879474407636        2.39907075165230        0.69064184121237
C            0.58852367794650       -1.05269034693850       -0.43940979413556
N            0.64796075656404       -2.35384045358998       -0.84840022034571
H           -0.11283314536043       -2.72534991445169       -1.39240774459220
H            1.56684422241134       -2.67390828957749       -1.11358226474430
C           -0.67235593470279       -0.36018794972889       -0.29688462943594
C           -1.82176477123116       -1.12285461388933       -0.26348724070602
H           -1.69814445218026       -2.19221701795624       -0.38697943263981
H            0.57883582117957        2.80819168404572        0.27440811891936
N           -4.81579032534817        0.68385675761914        0.93936249795085
H           -5.38395504344902       -0.11650560295344        1.15745147063833
H           -5.19353517212977        1.60968184117862        1.03411007095122
