27
 energy: -47.761644548983 gnorm: 0.000858176746 xtb: 6.6.1 (8d0f1dd)
N           -6.63084063466218       -0.45916384117419       -0.01319484976467
C           -5.48923596281136       -0.33549306667733       -0.01446336881908
C           -4.09501830591666       -0.18503164342654       -0.00905131930503
C           -3.16944245140265       -1.24788614471784       -0.00790839206146
C           -1.89298280765815       -0.69053733831839       -0.00402888281835
C           -2.04843633331064        0.76977863970424       -0.00248083714743
C           -3.41889012382286        1.04515468123124       -0.00547365328817
H           -3.88056797562806        2.01451080742377       -0.00552279170350
C           -0.92985987543777        1.57260088226420        0.00128913593644
C            0.36435972339335        1.02778494203252        0.00349673036555
C            1.41617530880917        1.94960408928123        0.00739948224102
N            2.72594573608960        1.85479242800954        0.00911472418142
C            3.47212314656775        0.75835881571737        0.00851569676485
N            4.78922724165703        1.00934022670284        0.00947394454441
H            5.46844067617478        0.26628401976627        0.00951105654426
H            5.08372368334434        1.97155278118503        0.01043500111403
C            3.05058026853820       -0.61303458075318        0.00733750989916
C            4.08305711125382       -1.57300307229894        0.00753983684079
N            4.95125344349102       -2.32661932657310        0.01155667115313
C            1.75082324148419       -1.09446588841530        0.00436278608923
C            0.51947331336565       -0.43311968183063        0.00202754998373
C           -0.62513031356760       -1.23855726903552       -0.00163381531712
H           -0.50843998769142       -2.31380802058346       -0.00270262696223
H            1.68267781733333       -2.17799764411129        0.00331924241541
H            1.10539808843578        2.99303338529786        0.00904881654236
H           -1.04099019108019        2.64845092058594        0.00245359847584
H           -3.41811460184852       -2.29242378328637       -0.01012287980457
