34
 energy: -56.977638527741 gnorm: 0.000871785936 xtb: 6.6.1 (8d0f1dd)
N            4.99986481969524        2.03049580022181       -1.26119498109362
C            4.20530683159738        1.29475814196392       -0.87410730887697
C            3.22950529649360        0.40380000071393       -0.38763662455498
C            3.58592318682606       -0.91607071399615       -0.26088769437027
C            2.81160818158693       -1.95056423686947        0.27565291835406
C            1.45354254509993       -1.97463215380302        0.51228752219552
N            0.96572765132956       -3.05531411555636        1.16934079967879
H           -0.01965743649680       -3.13764702419717        1.34672888776637
H            1.59143016822574       -3.76396778091119        1.50885277605372
C            0.45187597211414       -0.98144096289264        0.13036010453448
C           -0.82966269041145       -1.38220164819678       -0.19345162610033
N           -1.17606073076909       -2.71848706035716       -0.44838085417476
H           -0.42251914298625       -3.26126297073565       -0.84965910252927
H           -2.00664639144822       -2.77165767092458       -1.02267803917261
C           -1.86619569159532       -0.41801045731479       -0.24297460900488
C           -1.58606342736524        0.95401906300767        0.11431690716985
C           -2.86035557538526        1.61230466114064        0.02536163606059
N           -3.81646916189945        0.76539555960885       -0.29506579339210
C           -3.23750697136431       -0.46915851599225       -0.43969601898232
N           -4.03798645592023       -1.55063866378956       -0.78726840629231
H           -5.01015164465369       -1.26953385251383       -0.80214986758293
H           -3.90082654459185       -2.36982955758749       -0.20914659238523
N           -3.10691322377997        2.95019932513928        0.26949697611450
H           -4.06749933850136        3.18621497957851        0.05628433003719
H           -2.45462667951585        3.58048601643287       -0.17778619111106
C           -0.32998307720433        1.36956411148500        0.46838938096612
N           -0.10186027950784        2.64448317677236        0.90736215917216
H            0.74540619748114        2.81901796078695        1.42230436698319
H           -0.91703616059549        3.14017688598379        1.23177410903487
C            0.77347729801659        0.44653767015230        0.24391396136358
C            1.99378312988629        1.01042158557257        0.00780600153478
H            2.04529458223483        2.09254521794544        0.02429515215994
H            3.35085037597592       -2.85345112388016        0.53847000839490
H            4.60440734502894       -1.17173305748820       -0.52905872845121
