30
 energy: -50.102185517331 gnorm: 0.000870092271 xtb: 6.6.1 (8d0f1dd)
N            5.70132953785782        0.54085402903353        0.12640367223308
C            4.55717307772349        0.41213361521153        0.12515307924919
C            3.17507449887748        0.23103888392835        0.09555919129989
C            2.53244489867389       -0.98734473890590       -0.13834124501402
N            3.13214433093730       -2.21419430051256       -0.28205896886981
H            2.60337055125732       -2.92225453685908       -0.76400907679637
H            4.11717854305824       -2.19782816907801       -0.49609563871206
C            1.12958202172811       -0.73571991844124       -0.10863231938804
C            0.95066733880645        0.69068225877677        0.14306712081174
C            2.19959980309193        1.25725316689981        0.27644923800232
H            2.45260646763773        2.28569227536896        0.46355930991694
C           -0.35114860343867        1.23350545750053        0.16958291093797
N           -0.46461490632793        2.61834150673265        0.34134196625382
H            0.40223791287705        3.02833518083215        0.65754545858146
H           -1.24481305260318        2.91123075544279        0.91278941381610
C           -1.46269959895220        0.40887821849496       -0.00477498851504
C           -2.75649110097580        0.97093433583480       -0.30853606129925
N           -2.78212120950449        2.19404373996779       -0.87702155149677
H           -1.92060982266465        2.65312542679057       -1.12535595223593
H           -3.65842822633097        2.59223190415023       -1.16612069922252
C           -4.00317112050035        0.41357602317441       -0.00620728086791
C           -4.25639943410559       -0.84287182324197        0.53017046040034
N           -3.52184214068874       -1.92064801804835        0.46313331976180
C           -2.27595430340176       -1.99886943649255        0.02418428907197
C           -1.26556982497614       -1.04896073382418       -0.06102556909431
C            0.04405070091893       -1.55845303656811       -0.19919274506240
H            0.16753374765878       -2.62827177425573       -0.29999358151877
H           -1.98607224904238       -3.02644804039687       -0.18289177017213
H           -5.23410034775768       -1.00805703307129        0.97475219258884
H           -4.85678316173413        1.06655078645575       -0.14401932796044
