35
 energy: -61.529303047469 gnorm: 0.000846619342 xtb: 6.6.1 (8d0f1dd)
N           -6.49520850228641       -0.40668519405475        0.52589054497989
C           -5.36461370260829       -0.25756388301013        0.36538315812216
C           -3.98851092981667       -0.11639984718368        0.19393185080764
C           -3.27852222785028        1.10264785166519        0.13269837476998
C           -1.93027888879468        0.80094239462640       -0.02111691870637
C           -1.79698000251896       -0.64451275700280       -0.05382361714726
C           -0.55075846141661       -1.22031151326887       -0.19969664490446
C            0.60707971197911       -0.44820657967942       -0.27673159801575
C            1.83803610092132       -1.15239339113972       -0.47928904289352
N            1.78432383184567       -2.35627210149208       -1.09331137801865
H            2.60599498036732       -2.93609559229407       -1.12395095003388
H            0.91738203078307       -2.71471242241315       -1.44900384971010
C            3.10748625625883       -0.77013631660813        0.00402917846177
C            4.13714992273424       -1.71645742358951        0.00585015516533
N            4.99921801896724       -2.48292784242442        0.01710152879296
C            3.42025272565436        0.51340247713632        0.53660683272302
N            2.83260182688142        1.62749405590394        0.18125249880792
C            1.64465065748839        1.83275061594583       -0.35970059048105
N            1.54171133367843        3.03802307754013       -0.97175528786170
H            2.39512711441686        3.54649403125849       -1.12909072001009
H            0.73556914820208        3.23745955762931       -1.53841132949912
C            0.48766074700188        1.00873868912054       -0.21492569504445
C           -0.78471235946778        1.60259908912880       -0.09602278428164
N           -0.95561634828778        2.97754967521428       -0.03228322399935
H           -0.21244842919901        3.50203868617604        0.40486850323936
H           -1.87223106629229        3.23823551712632        0.29882720560340
N            4.48551241292155        0.63294481443989        1.35612253595604
H            5.09544236182716       -0.15244776573390        1.50436891493909
H            4.79633560169861        1.55451120728765        1.60704795661385
H           -0.47984845002877       -2.29953285579878       -0.17637329774374
C           -3.08431788179334       -1.19388405119685        0.09551211715992
N           -3.42738966867105       -2.53377980886438        0.04638231639556
H           -4.36382377775607       -2.73032905179805        0.36913624966609
H           -2.73611827301518       -3.16981756429929        0.41456284351846
H           -3.74138671551971        2.07180297645379        0.18443470932934
