33
 energy: -53.266617640082 gnorm: 0.000577301290 xtb: 6.6.1 (8d0f1dd)
N           -4.05949031464751       -2.82638887078306       -0.69157785969475
C           -3.37698970728561       -1.92442459228137       -0.46903504367426
C           -2.56407567625747       -0.81410843705537       -0.19433453952451
C           -3.19952939087185        0.43915684862877       -0.12621874325898
C           -2.57203490806551        1.64826730329036        0.19825980805649
C           -1.23124243373337        1.97989567275593        0.28698906867526
N           -0.97970992244308        3.28054031625729        0.60556260372352
H           -0.05748939736408        3.54999608390930        0.89520475286274
H           -1.74498634420472        3.87341761939738        0.87508783429360
C           -0.07163487451524        1.15943380190856        0.04013316954838
C            1.12411817047768        1.78291864609171       -0.25891346657983
C            2.31954639847741        1.07047322567773       -0.34811029108497
C            2.33095542858863       -0.34202438015158       -0.01520908438056
C            3.68704874767964       -0.77065104720595       -0.08780372484815
N            4.13683631706029       -2.07893338055049        0.16309603562626
H            3.66248998833237       -2.76961687695632       -0.40838438300216
H            5.13784374616780       -2.15105739868591        0.02366181545986
C            4.45771712972314        0.32892131582908       -0.42501509822445
C            3.63151481699722        1.45608472358997       -0.58017765234209
H            3.96854408327684        2.44482842370717       -0.83438553282372
H            5.52771601272534        0.32240066962945       -0.54650108304169
C            1.16752054307980       -0.98631077907588        0.33841487030464
N            1.21181408582627       -2.29351151604419        0.75508017054626
H            2.13270761850287       -2.60413153872212        1.02681202489791
H            0.46274351947955       -2.62534384753985        1.34049855591390
C           -0.09909394919280       -0.30107118303573        0.18072606621795
C           -1.20634725822344       -1.10326061325065        0.05421052271866
H           -1.01542519421685       -2.17066656503797        0.05738135878645
H            1.15848169311942        2.84406455135672       -0.46260905023451
H           -3.25802676659396        2.47346341010418        0.36351627673648
N           -4.54409094763886        0.47238780694289       -0.30338395160023
H           -5.03949720172804        1.34461419113889       -0.29707618922451
H           -5.03807664273304       -0.36946256663713       -0.54427592282904
