28
 energy: -47.464732986570 gnorm: 0.000677968885 xtb: 6.6.1 (8d0f1dd)
N           -4.03543042711865       -3.18504540641857       -0.40407902537715
C           -3.28526889033664       -2.32618108995276       -0.27402561390078
C           -2.35747561379996       -1.26979623078237       -0.12366403379500
C           -2.90333974577425        0.00968620252144        0.03298271332885
C           -2.21115142274229        1.19458003323741        0.18324577316146
C           -2.98588568047945        2.36030552344423        0.38176744815521
N           -3.59785805913317        3.31871728462091        0.53975805579111
C           -0.81054237924487        1.42347796321616        0.10004977179556
C            0.25690603939902        0.57880437499045       -0.04969862369294
C            0.16901024675241       -0.91035247459605        0.00220769861341
C           -1.01061360860041       -1.64264800883634       -0.07877501300691
H           -0.86209765818314       -2.71813323282035       -0.10657430233926
C            1.34373114918802       -1.65410777511262        0.12711119057756
C            2.58566016710363       -1.05092799579171        0.15580811431436
C            2.69720321450574        0.39350924004629       -0.02807388692643
C            4.06662060135493        0.69934049401340       -0.03372706642275
C            4.77191119905342       -0.48750288613379        0.14941839995273
C            3.88284364049756       -1.55805676274235        0.25699900598425
H            4.14744187248925       -2.58980743610209        0.39139864031467
H            5.84364681417175       -0.56685609580451        0.19204689826498
H            4.51195587099483        1.67197203037146       -0.14169420276377
C            1.56165537152613        1.17767884925233       -0.18134360744954
N            1.70578923624117        2.51566757081835       -0.39321484028921
H            0.97251377386257        3.05404432988168       -0.81914476397476
H            2.64340365450127        2.84373888075068       -0.54821194557726
H            1.27598032099348       -2.73072917597736        0.19466347068238
H           -0.57446398372242        2.47841393385306        0.18824092028182
H           -3.98591853789990        0.07079436295296        0.05437657729769
