24
 energy: -43.771832018250 gnorm: 0.000514134914 xtb: 6.6.1 (8d0f1dd)
N            0.88426333111447        3.90767190508433        0.07931824593530
C            1.01291144058988        2.76859864565433        0.03656006331883
C            1.25537498977037        1.37062474839516        0.00267279095372
C            2.60024891865344        1.06030196285680       -0.36136309582563
C            3.22330220928787       -0.13878212124656       -0.32769352079565
C            2.61242089129260       -1.38272024154675        0.07649360757498
N            1.35291054881700       -1.67320048653678        0.04183063363476
C            0.23907988124810       -0.94579033096075       -0.04679986150651
N           -0.83700112536652       -1.64211998834630       -0.29999455758499
C           -2.03668613190276       -1.05934817670093       -0.24439587860253
C           -2.20900263148528        0.35558501564598        0.15999673092260
N           -3.53235106718708        0.65802052481010        0.24602408570927
C           -4.16655647287138       -0.45755118137036       -0.04275943367029
C           -3.31186548903244       -1.56431647482425       -0.31982439920215
H           -3.61711668160901       -2.56193247763450       -0.56163070729032
H           -5.24319486929514       -0.47502962416633       -0.05529247005068
C           -1.10558223612538        1.09608514906056        0.45114699783425
C            0.17485260883502        0.52289225009175        0.21534297861424
H           -1.18879426452254        2.11371601649681        0.80598771599945
N            3.44269342571326       -2.38166122716112        0.44987140620598
H            4.43839863388493       -2.29594219583202        0.36008677702951
H            3.03690943496629       -3.28120918626376        0.64189406917022
H            4.26277559231800       -0.18806558486898       -0.62322720706232
H            3.18767081180639        1.91879242966343       -0.66659751501172
