29
 energy: -50.399631023030 gnorm: 0.000784752356 xtb: 6.6.1 (8d0f1dd)
N            5.88236407085623        0.61424626556746        0.23125038898180
C            4.73226897169117        0.60931968553343        0.19453816855540
C            3.33995085414602        0.54109645814593        0.12550660192175
C            2.44317341407407        1.62430285985589        0.11394993962741
C            1.15414977691417        1.10914372174756        0.00494635133993
C            1.25128011801755       -0.34479233140603       -0.02139911690966
C            2.61834311329119       -0.67229023521310        0.02914052130802
N            3.17874236511746       -1.94706705903061        0.01660144276151
H            4.19126419210453       -1.91709924259588        0.01084208874809
H            2.82817495591635       -2.54649149751055       -0.71972911215869
C            0.10543847001898       -1.13446342493487       -0.02928158806227
N            0.23398691813334       -2.49100541103772        0.07650049806939
H           -0.56587354814905       -3.02868089393158        0.36340675563340
H            1.12198505993142       -2.81134043281785        0.43045872279631
C           -1.17823592715078       -0.51425109694296       -0.13384437266006
C           -2.28284601260899       -1.31201440912350       -0.39952958417707
N           -3.58069198992200       -1.08478681792021       -0.28447907754238
C           -4.14376530156095        0.07345021227941        0.01532895807452
N           -3.71333277687781        1.32816530864711       -0.21053345729237
C           -2.45828834559483        1.67449218696139       -0.29868529984884
C           -1.25662097475432        0.96144611279653       -0.12413384411313
C           -0.08928206519122        1.71451889657595       -0.06853720084131
H           -0.15869175333943        2.79329943821760       -0.07253461989879
H           -2.34097658780711        2.73902897949662       -0.49085541344753
N           -5.39077856289418        0.00371328324543        0.50681193446359
H           -5.90664726526719        0.85406028125036        0.64774160386739
H           -5.83037455287495       -0.89250368313533        0.61766827924189
H           -2.09604964832116       -2.33765195304792       -0.70856259486439
H            2.71825216960005        2.66040063072562        0.17250065982603
