28
 energy: -51.471334939694 gnorm: 0.000412268765 xtb: 6.6.1 (8d0f1dd)
N           -0.88986954526952       -4.46770506575323        0.00013945984289
C           -1.07903782153722       -3.33525317618341        0.00202368477030
C           -1.39210897785444       -1.95246337419059        0.00320689036925
C           -2.75994493887715       -1.72015736374438        0.00477849782728
C           -3.47228998286060       -0.53369456483814        0.00693886651443
C           -2.99619919098236        0.77633675216813        0.00766341280701
N           -3.91228350033792        1.77523606799454        0.01234898353436
H           -3.61695661610325        2.73634582224236        0.00804153430526
H           -4.89298605419145        1.56232340647870        0.00829565472254
C           -1.62425473360388        1.15400964896565        0.00509203810781
C           -1.38661437335472        2.55588725331331        0.00399383118489
N           -1.33364551596302        3.70331797655620        0.00288669939460
C           -0.43451116576767        0.41497954784439        0.00296367262919
N            0.62407048721549        1.23934872567653        0.00103368609366
C            1.83287810120467        0.73965983373611       -0.00027549216507
C            2.09521606778699       -0.72659800993914        0.00039246084897
C            3.46228260404368       -0.84273618606587       -0.00115613298274
C            3.94753778857538        0.50391968134052       -0.00269642239910
N            5.23003863100193        0.87716742592883       -0.00455605908423
H            5.44046565320542        1.86008671797672       -0.00568827408246
H            5.96953871547400        0.19824101643979       -0.00520502077932
N            2.97047037416002        1.42992206385020       -0.00217225025164
H            4.06592987682154       -1.72868037581925       -0.00127593686896
C            0.99406473805777       -1.57647713170585        0.00174840080088
C           -0.28881079297781       -1.04799546726173        0.00279644183654
H            1.13656321711130       -2.64880649068665        0.00173997797892
H           -4.55088045188060       -0.63298475762475        0.00842219742564
H           -3.36749798199660       -2.61851444989900        0.00448299011908
