30
 energy: -50.118956096546 gnorm: 0.000623016122 xtb: 6.6.1 (8d0f1dd)
N            6.19070073752829        0.29068045328650       -0.45972050956802
C            5.04568082338576        0.22976215881470       -0.36894190239106
C            3.65446715410256        0.15585008716905       -0.25233494888202
C            2.76314838753589        1.24654936967721       -0.42556525763122
C            1.48166455092518        0.77359091804349       -0.21908691562640
C            1.56790993935033       -0.64046871579020        0.08580402539591
C            2.93202408949307       -0.99196110988574        0.06751765806616
H            3.36296975355207       -1.96145766166981        0.24418413451108
C            0.41917593642915       -1.38397950433589        0.32124477975679
N            0.53585823084270       -2.71627650269685        0.59378823037545
H            1.46972287089097       -3.05191625854692        0.75601070223744
H           -0.20064483426377       -3.20161393846025        1.07426539589842
C           -0.86705972414933       -0.75613110371118        0.16180293721043
C           -1.96422647283746       -1.58571978879611       -0.00541176826993
N           -3.20347395965424       -1.37047084125004       -0.41316212660866
C           -3.83724531677775       -0.21412003926610       -0.45664208684085
N           -5.08551264950121       -0.29499995212399       -0.97442702736264
H           -5.65012510150062        0.52220563117897       -1.11249063045030
H           -5.37346839511258       -1.17454655396983       -1.36465072339695
C           -3.42873991779054        1.02574057551366        0.08262728443252
C           -2.14128549343575        1.43583095488269        0.34462521255559
N           -1.98466034221897        2.68922228945608        0.83950682887703
H           -1.08637521540204        2.98923388984278        1.17233286804768
H           -2.79388507899968        3.22351488078718        1.10218760472664
C           -0.91413654714781        0.70534983427406        0.07842676518068
C            0.23751086354293        1.41724079270233       -0.14682515186527
H            0.20918612059553        2.48843315617390       -0.29126946094501
H           -4.21419056546533        1.75571910986834        0.24131995536889
H           -1.78626433219267       -2.65387372941836        0.07805453323461
H            3.05426831647410        2.25264602175010       -0.66503027273694
