29
 energy: -50.400542734343 gnorm: 0.000666652129 xtb: 6.6.1 (8d0f1dd)
N           -4.82146897642205       -2.12113783377996       -0.03447866356556
C           -3.86725253151467       -1.47615852674375       -0.04707082926794
C           -2.73281765757001       -0.65093247694047       -0.06055184420634
C           -2.93413495152836        0.71722698336916        0.28468990455706
N           -2.12571540891657        1.71796011824344       -0.00061641708764
C           -0.85358166805864        1.71653203288296       -0.34066693461724
N           -0.44839892959901        2.88532143127201       -0.87586595472637
H            0.47834151679130        2.99588048884931       -1.24335710294656
H           -1.13791910614593        3.60107528774495       -1.02788963446798
C            0.13634811755783        0.69626378676307       -0.12581899032312
C            1.45913966917010        1.07917296005921        0.05362052012915
C            2.46949708734281        0.13508782161121        0.11051217101507
C            2.14850918671734       -1.27465162552481       -0.10437292974932
C            3.39581790375637       -1.93745695100290       -0.04030517367733
N            4.38672050585927       -1.08780033893628        0.18785651562690
C            3.85902246929652        0.15743156117769        0.28845842418418
N            4.67985912344190        1.24805594066977        0.45756180358530
H            4.28395354626726        2.02498802680938        0.96347279537323
H            5.61485716757176        0.99794884559480        0.74194468197093
H            3.58882645768971       -2.98840474463033       -0.14970628117330
C            0.84951577345927       -1.66134260028498       -0.28325220534189
C           -0.20513255451260       -0.72127628112056       -0.23458062992924
C           -1.49232330349632       -1.24622668625986       -0.30650640485440
H           -1.54554277314145       -2.31436303619735       -0.48886305551135
H            0.60506806511116       -2.70688570857482       -0.41436614060519
H            1.70311069745481        2.12538729257642        0.18879052291247
N           -4.09654399426952        1.06654160650041        0.86793021537935
H           -4.27548454054585        2.03798001614502        1.04979122581302
H           -4.82319611846605        0.38445794182752        1.00283708090332
