29
 energy: -46.389279050555 gnorm: 0.000627961044 xtb: 6.6.1 (8d0f1dd)
N            5.67410103091903        0.62772055925311        0.26631656262249
C            4.53026002712456        0.52398059616609        0.18696347008155
C            3.14797579981707        0.35979493704330        0.10374852974408
C            2.17322697779330        1.39516053344536        0.27840674795588
C            0.92839759497860        0.83260079736400        0.14033775559348
C            1.10060190651933       -0.59818728057575       -0.11856386665772
C            2.50654463041543       -0.85482764461699       -0.13826464392577
N            3.10478836900976       -2.05834817035055       -0.43318277606437
H            4.08425741472514       -2.12074471922410       -0.19935439816051
H            2.56966712068271       -2.88466509124589       -0.21790071433501
C            0.00874507712743       -1.40146913421624       -0.22857034473249
C           -1.31498400650323       -0.89572406656910       -0.09327968169150
C           -2.30103427303768       -1.86555506520176        0.00085623393321
C           -3.66308091467094       -1.77372006913752        0.29167613158170
C           -4.42532904521635       -0.63271946244140        0.36881909287677
C           -4.03811252261944        0.67687162293990        0.10478879024019
C           -2.77517253170047        1.20500953695668       -0.13665997132542
N           -2.75308608020401        2.51213409561301       -0.49229167643797
H           -1.90596458045764        2.93913607729102       -0.81994507146894
H           -3.62005354882324        2.99831603392963       -0.64030889509570
C           -1.48647899033511        0.55622255747606        0.00187199785201
C           -0.37027558433704        1.35344499894659        0.15809951946741
H           -0.46718749827152        2.41614929439336        0.33223187117142
H           -4.84569038532475        1.39957250268349        0.06433521424552
H           -5.47669516427743       -0.76846019044870        0.59053334700649
H           -4.17561751612832       -2.71351511353051        0.44865230857563
H           -1.93992497929863       -2.88330301553182       -0.10181725693564
H            0.12659165008351       -2.46887575363725       -0.36754766773493
H            2.40910593310914        2.42333852962637        0.48023642641863
