25
 energy: -43.495103779975 gnorm: 0.000732867095 xtb: 6.6.1 (8d0f1dd)
N           -0.51284850074671       -3.85232971445476       -0.00317257389475
C           -0.75134736930480       -2.73164436988200        0.00078639726682
C           -1.17000246248908       -1.37200702968335        0.00683544775156
C           -2.55165923079395       -1.19831122554922        0.01860826386350
C           -3.28871482731298       -0.03372197029239        0.01478161364258
C           -2.83367694802351        1.28971200638836        0.00960108796615
N           -3.78094601046391        2.27267984571930        0.04512919524703
H           -3.51476068700572        3.22942886877663       -0.10455772404833
H           -4.74611494274362        2.03502844698766       -0.09842439201282
C           -1.49439997640952        1.71076639042976        0.01796393164629
C           -0.28823888777894        1.02952985248162        0.01548470688829
C            0.88419753514879        1.82230484712272        0.02612530305799
C            2.11237365248766        1.22261728096496        0.01613137263189
C            2.16881283651019       -0.27151029475996       -0.01701494202369
N            3.41847629337296       -0.69122728815494       -0.04066490471845
C            4.18042494844842        0.43133032719356       -0.02073543814842
C            3.45874541832862        1.61252997076669        0.01204994365226
H            3.85175205085216        2.61015017159408        0.03184434596051
H            5.25204725230844        0.32962640487699       -0.03248958481459
N            1.08082957753055       -1.01784641158847       -0.02158825833843
C           -0.10791185539269       -0.43863834480707       -0.00126335592536
H            0.78707677754331        2.90184729992083        0.03859383670701
H           -1.38522557183519        2.79268232594955        0.02956212659444
H           -4.36555414635074       -0.15321653882198        0.01848526956058
H           -3.12394261187980       -2.11853443987858        0.02495634848794
