33
 energy: -58.076128809149 gnorm: 0.000634542562 xtb: 6.6.1 (8d0f1dd)
N           -6.30821246159016       -0.10170666011843       -0.27119972032719
C           -5.16926115706689        0.05932582606337       -0.22718789258809
C           -3.78317085984636        0.19668267498688       -0.14835539316065
C           -3.05323929114029        1.40475870923703       -0.19516640096791
C           -1.71157816877900        1.08992312818917       -0.04685496426638
C           -1.59062809670221       -0.35340623330267        0.06519861974168
C           -2.89509534425071       -0.88539110224057        0.00945217013730
N           -3.25450547554395       -2.23831228846665        0.06909264477883
H           -2.90045043277358       -2.71618067298109        0.89023039895197
H           -4.26003534581102       -2.35264126202842        0.00654097726318
C           -0.34312877314352       -0.96619879306703        0.10122127647620
N           -0.30926171596712       -2.35164093796767        0.01997587365558
H            0.48721068857873       -2.74252634009067       -0.46386310043396
H           -1.18704113327907       -2.72411081685028       -0.32144976466716
C            0.84527612724031       -0.17692588153537        0.14329037336435
C            2.09512058242923       -0.81094171328536        0.34317100430295
N            2.13965762075788       -2.00903518865558        0.96841567436658
H            1.31922137912671       -2.37780000527015        1.41802812000930
H            3.02464971619398       -2.47266655097323        1.09052007361434
C            3.35280912913048       -0.36580925452213       -0.19333686125024
C            4.37557544636675       -1.32516444929603       -0.28287045694926
N            5.20203800302570       -2.12423115979709       -0.33862589082932
C            3.63165385968401        0.89855876295547       -0.69182087152896
N            3.01177808835231        2.01156131113504       -0.40188561297783
C            1.82758087512789        2.16626791304362        0.15532508896050
N            1.66018204331127        3.34886526791820        0.77230317683877
H            2.42040594941606        4.00737082124371        0.75872702091758
H            0.77824484819144        3.60541118972654        1.17800401745116
C            0.69584774259433        1.27893369310660        0.05554553184152
C           -0.55417270617143        1.86050285487712       -0.03321478027320
H           -0.64381993109122        2.93090988898838       -0.15702110688297
H            4.53916091514651        1.03004389865565       -1.27179431106026
H           -3.47996605551875        2.38287881542146       -0.31394771770817
