32
 energy: -53.547725822272 gnorm: 0.000716062049 xtb: 6.6.1 (8d0f1dd)
N            5.91142888489012        0.40322171761466       -0.10074612163487
C            4.75982668057380        0.39623647974612       -0.09857427055800
C            3.36758501117209        0.33773713897249       -0.07526680894273
C            2.47996108663426        1.43807884327329       -0.14557006359775
C            1.18659649763891        0.94906369807099       -0.05471859615423
C            1.25824993858067       -0.49411368936185        0.03644833765840
C            2.62532077323622       -0.84909996083425        0.04105429332439
N            3.14931906914605       -2.14469561390350        0.11026797658648
H            2.79512086354349       -2.67836469438361        0.89528807568723
H            4.16278626880034       -2.13274197994320        0.11989194095491
C            0.11160412585427       -1.27860892100152       -0.01455279725606
N            0.26370349679287       -2.63780487526674       -0.11030850060636
H            1.18444492820021       -2.92699751325214       -0.40782523181057
H           -0.49386715930008       -3.17887556834080       -0.49068509125707
C           -1.17115963420281       -0.64672821705537        0.02232637811725
C           -2.28004710182712       -1.46580760328502        0.12137586088665
N           -3.58659156241597       -1.27832784666910       -0.02694601825690
C           -4.24057698678099       -0.13764042406865       -0.01575890908634
N           -5.54906488932982       -0.23769999387107       -0.33228851228786
H           -5.91757187581102       -1.14368228647163       -0.56220427403495
H           -6.16172928858258        0.55486090192909       -0.27976515662171
C           -3.74548935428239        1.14376295456700        0.35045051345176
C           -2.43314504795140        1.53341811352198        0.32881270965087
C           -1.24121719798785        0.83651581996175        0.05217307648575
C           -0.06576065665476        1.59259297036290       -0.05981232044337
N           -0.08202472601822        2.97189553993474       -0.11764128347900
H            0.80995803574510        3.38542008188401       -0.33407317091689
H           -0.86131322695585        3.41754778894964       -0.57101248066280
H           -2.28624952772781        2.58042464219377        0.56783893397605
H           -4.49012872141307        1.89721207893545        0.57110462180056
H           -2.08744629724066       -2.52006803203981        0.30412141829095
H            2.79988095697432        2.46071977333067       -0.23343513276376
