29
 energy: -55.198753088825 gnorm: 0.000595311614 xtb: 6.6.1 (8d0f1dd)
N           -1.50226364428865       -3.30633284827588        0.93989793556129
C           -1.48244537465106       -2.24240309117377        0.50378576882083
C           -1.61401302072102       -0.88220159467848        0.13226773734893
C           -2.96675222417549       -0.46048108411729        0.02944395057412
C           -3.42096156224564        0.83844684703533       -0.20152434892612
C           -2.72020004736102        2.03852961200609       -0.17688980665151
C           -1.34778302596175        2.19792302304626        0.07202354817784
C           -0.29910439994906        1.29537675152975        0.13250947399545
N            0.88050856374880        1.91724776297891        0.32638186096733
C            1.97832314533775        1.21215695587182        0.26680033106944
C            1.99892073286860       -0.23403952345206       -0.08179605110359
N            3.25824547937636       -0.61929062390603       -0.18615394387341
C            3.95516443667668        0.51282898185423        0.12248273772754
N            5.28438377227298        0.50701220956897        0.14509270867685
H            5.77520850909069        1.35154140880413        0.37695850143747
H            5.77094206339164       -0.34666658828484       -0.06233853720882
N            3.23925532460832        1.62179159166403        0.38664003372265
C            0.78177965467715       -0.89317752812942       -0.22975382281465
C            0.79515727450735       -2.22875877125223       -0.68347886284080
N            0.87752486786882       -3.26854531020000       -1.16349168809203
C           -0.41010304792600       -0.16079040405086       -0.02061627866682
H           -1.00903419679610        3.22093724025275        0.18504319982734
N           -3.43618817552388        3.18601217559330       -0.33181401569085
H           -4.39803220782958        3.14662637898227       -0.61705929289729
H           -2.95284764749903        4.06105335961929       -0.42350333462685
H           -4.49098538823522        0.92623575466958       -0.35380782872805
N           -3.92097841383473       -1.42383302127500        0.10197687458010
H           -3.66896256849578       -2.37756811687982        0.29675912635756
H           -4.89217221033064       -1.17160920090050        0.10762143727596
