27
 energy: -47.740407499314 gnorm: 0.000816836951 xtb: 6.6.1 (8d0f1dd)
N            0.63385004616959        3.61592493048000        1.02507284674047
C            0.84946025209031        2.57436188296333        0.59449984816141
C            1.27552977301713        1.27881622102629        0.20085723492115
C            2.64930453018961        1.19008065956880        0.08505373013638
C            3.45219516100820        0.08634609629484       -0.18166051724807
C            3.08334959220298       -1.25084196631773       -0.17461608451446
N            4.05005998394743       -2.18494255827838       -0.38416500318712
H            3.81080160834385       -3.15613212112817       -0.46605954799616
H            4.96600030614576       -1.89977003505764       -0.68047034632588
C            1.79189703412876       -1.75062377182415        0.13128608664360
C            0.55564817830139       -1.15241615559846        0.21404403790674
C           -0.53804334282592       -2.05273476281181        0.41679760664386
C           -1.82008161330908       -1.63551530953140        0.26857631289565
C           -2.11693189887017       -0.24523739735714       -0.09785951639418
C           -3.47925844087010       -0.19208331984186       -0.24853926590864
C           -3.93594697542467       -1.51276446930934        0.04559328064615
N           -2.97775871975549       -2.35825843655940        0.34679561414138
H           -4.96176533683846       -1.83901944686542        0.03693589691278
H           -4.08727841762091        0.64866863958329       -0.51757848923289
C           -1.04977492885802        0.67950533074223       -0.17353989468593
C           -1.39404676756676        1.99027405595624       -0.56731387223446
N           -1.77015217520195        2.98858558338193       -0.99229202989923
C            0.26294480401280        0.27446918590032        0.04670551104962
H           -0.33027323904581       -3.09200703820461        0.62275441029793
H            1.77441742180927       -2.82843696362572        0.25943827703080
H            4.50160469301513        0.29186068013130       -0.35068200434704
H            3.17689348040450        2.13053549646635        0.19506531294041
