31
 energy: -54.645642479630 gnorm: 0.000725165589 xtb: 6.6.1 (8d0f1dd)
N           -6.42398771765889       -0.88814715086676        0.49588333300628
C           -5.29252642260312       -0.72558368925718        0.36405526473503
C           -3.92623082231083       -0.48489724677037        0.21250791320304
C           -2.88685921044172       -1.44457539092487        0.36575440125617
C           -1.68101522021787       -0.80905149285939        0.14902700900093
C           -1.95616763563471        0.59900989146459       -0.13797088648275
C           -3.37277182264906        0.76502078249453       -0.09507528142234
N           -4.06250725400703        1.91044714254283       -0.38313195479839
H           -5.03641498153012        1.92549443959855       -0.12430846587822
H           -3.57088719677010        2.78300065123859       -0.28299198192052
C           -0.92373620657421        1.46567826936686       -0.33431680804948
C            0.42427445288149        1.03523491221545       -0.24639573604856
C            1.38343152418581        2.04100019036125       -0.26905676019866
N            2.64276250355725        2.05352001250789        0.12513602027889
C            3.43096263547116        1.02850280317454        0.34265109835457
N            4.59233125544355        1.31806448440061        0.96215194442730
H            4.78385791143996        2.28067211528439        1.17957375159733
H            5.32253829299678        0.63130371978247        1.04154036735753
C            3.23639733875715       -0.32264910104311       -0.10610252369114
C            4.40177748489652       -1.09021378980572       -0.24305670787990
N            5.37089597893066       -1.70591626051800       -0.34722010028917
C            2.00652369780767       -0.95226667774241       -0.34241205548101
N            2.06012899347319       -2.22739427084890       -0.77626694927319
H            1.22078401120261       -2.73066450138100       -0.99871036155425
H            2.95157323900786       -2.67463657623008       -0.91359753633905
C            0.69484814652743       -0.39343409520198       -0.11560526153631
C           -0.36250732092662       -1.25897659694699        0.10741163235646
H           -0.18521295789214       -2.30993227751702        0.29322430421760
H            1.03520641072258        3.03664006559926       -0.53126959924399
H           -1.10535439045268        2.51913408495277       -0.50405373293306
H           -3.04352109463237       -2.48017011547341        0.60398112282759
