31
 energy: -49.827856659259 gnorm: 0.000791168542 xtb: 6.6.1 (8d0f1dd)
N            4.80687438580819        2.23801067598389        0.03771179030144
C            3.95616371492786        1.45896308959013        0.02452889168570
C            2.94069397560797        0.49213877724986        0.00846956944112
C            3.36211559733049       -0.86602483492122       -0.00743664484912
C            2.52071005822918       -1.98251122810232       -0.02040433951504
C            1.13759755112698       -2.04422538295209       -0.01574092079323
C            0.14411312690367       -1.06963761736474       -0.00562827688320
C           -1.18445812926226       -1.52814172533786       -0.00165277473786
C           -2.25354629749883       -0.66843615352000        0.00036953822260
C           -2.01074437107860        0.78326301684435       -0.00405942312349
C           -3.27995032517498        1.41270134350013       -0.01018453801099
N           -3.50746478372793        2.77180138954612        0.05405303118903
H           -2.75313222249313        3.35188322305344       -0.27777308357336
H           -4.41904691829507        3.07151326317106       -0.25499268039479
C           -4.25482079993127        0.41482364496963       -0.00009540252511
C           -3.64965944071015       -0.85125195072851        0.00909428985790
N           -4.31503575206309       -2.05932736812435       -0.05292715962039
H           -3.79220267901729       -2.85491393677216        0.27806686034733
H           -5.27092124498553       -2.03969753841403        0.26717820718084
H           -5.31702037965361        0.58812400441242        0.00074501103960
C           -0.72970509841828        1.25368159196376       -0.00388426234636
C            0.38802873480222        0.38618704987523       -0.00201961169174
C            1.62823853916647        0.99277607639824        0.00621806794531
H            1.59937264531275        2.07904620407739        0.01388677475841
H           -0.54075158285502        2.32002214855386        0.00075857112340
H           -1.35269075567598       -2.59814802230934       -0.00624081113827
H            0.75329801565097       -3.05964366269272       -0.02305023285525
H            3.03486513179245       -2.93643823490937       -0.03273761374313
N            4.69444594250350       -1.09251587950863       -0.01000552174378
H            5.33896638166094       -0.31984892307090        0.00001395864013
H            5.05180268181732       -2.03078622786128       -0.02263564678771
