30
 energy: -50.910729139869 gnorm: 0.000975708076 xtb: 6.6.1 (8d0f1dd)
N            5.15397728439601        2.65024913127286        0.51480972699225
C            4.34833012420130        1.84759875491446        0.35613337217980
C            3.36250425151763        0.85420675227093        0.16768492877235
C            3.81464519579195       -0.47533053395519        0.14183093863797
C            3.08121915594941       -1.59495229263153       -0.11705426133857
C            1.67986541749049       -1.77494774513666       -0.25987618860137
N            1.34133664672730       -3.02406905177045       -0.64762270674455
H            0.38300320749915       -3.23938955889188       -0.87226823492558
H            2.06290200816073       -3.66573836031759       -0.92634069144832
C            0.63610300067002       -0.83930432501120       -0.01437297188306
C           -0.67901312032570       -1.30298734799236        0.21566669518237
N           -0.95270391578052       -2.63385706090604        0.53010204037307
H           -1.90368164297612       -2.76198475819087        0.84379332128844
H           -0.28636907802876       -3.08198762383052        1.14212212598164
C           -1.77171860992632       -0.43431622789266        0.10264095251622
C           -1.55740295927241        0.97125319710813       -0.21423305649822
C           -2.81175475274293        1.58866494756267       -0.28838463637586
C           -3.77341678764407        0.60756277489999       -0.02940817778254
C           -5.15950533773258        0.80550742616969       -0.01202806625766
N           -6.29883537829018        0.95374467167908        0.00525176652391
C           -3.14132175170008       -0.63205703059307        0.22487283315609
H           -3.66884237309016       -1.54336100425365        0.44358833081425
H           -3.00666612409830        2.62197753733159       -0.50344073552981
C           -0.27079328652555        1.45521767564972       -0.28730605849355
C            0.84513823500926        0.61939432500396       -0.12742326604539
C            2.06174769777564        1.29678741177811       -0.04553389780492
H            1.97357190505313        2.37637359361789       -0.11105572940857
H           -0.11167227668582        2.51592132557393       -0.41944124692681
H            3.64799046169441       -2.51390970319204       -0.21525439891440
H            4.88111815658380       -0.61072031586768        0.27584352226111
