36
 energy: -61.231264486567 gnorm: 0.000554865021 xtb: 6.6.1 (8d0f1dd)
N            6.46943137662403        0.89747958710910        0.41238675529994
C            5.33681721632602        0.73431627217468        0.28235153203646
C            3.97006416152708        0.49825476822549        0.14477047183352
C            2.94810060876480        1.47676513938881        0.19545336606246
C            1.73301384286395        0.82782483683616        0.02863760306981
C            1.99921697710557       -0.59253765388594       -0.11259855280773
C            3.39573275654721       -0.77428997877187       -0.02851185539088
N            4.08778616758550       -1.96142266107372       -0.19456692072038
H            3.60569271191430       -2.78887187724908        0.12246871206796
H            5.05243719961868       -1.92140279928970        0.10128557574669
C            0.95167558823183       -1.47958848373949       -0.21946767487143
C           -0.38124315031559       -1.05463316655752       -0.21922166647116
C           -1.37530526852353       -2.07440084763762       -0.20829525293707
N           -1.00291190686776       -3.33893477019443       -0.56968815530251
H           -0.20651099437611       -3.46576656137621       -1.16748512073673
H           -1.71760381796136       -4.04414030964138       -0.61548642534127
C           -2.67497859165919       -1.98386997494531        0.30636071420896
C           -3.47400207546771       -0.87528118117096        0.50789399971547
N           -4.67188813339338       -1.04730336759064        1.12492676857859
H           -5.34948494319377       -0.30379666711348        1.11094653414172
H           -4.99223378158412       -1.97480347059518        1.33899471492717
C           -3.19703441293737        0.42180406863711       -0.01109377935823
C           -4.29883096108093        1.28161808445437       -0.11563046357287
N           -5.20851645336289        1.98824805253770       -0.18787798821153
C           -1.95962572916538        0.92760928556834       -0.45128879303435
N           -2.01071578959700        2.07952326160672       -1.15446405469677
H           -1.15582231035774        2.54098006075608       -1.41739014266974
H           -2.89054116354063        2.54910993310024       -1.28990962727474
C           -0.65871233648112        0.38068297372981       -0.18403604262838
C            0.40842589204435        1.28090281872528       -0.00381043735042
N            0.20431669651301        2.65616930262908        0.15495161677858
H            1.03416521332297        3.11808190384188        0.49768637425585
H           -0.61516485100839        2.91405430167402        0.68712795430344
H           -3.14208578803213       -2.93556431029876        0.53574916103683
H            1.18083160116037       -2.53520038431423       -0.20670141075951
H            3.13258142175608        2.52901129315050        0.31942207197081
