33
 energy: -53.257170760575 gnorm: 0.000461661199 xtb: 6.6.1 (8d0f1dd)
N           -4.68111763478923       -2.17415453557924       -0.09431969774270
C           -3.85464309464667       -1.37281520688527       -0.03504991574171
C           -2.83309234539854       -0.41430318428766        0.04768351238105
C           -3.21778833060833        0.84115053751011        0.54767909564287
C           -2.53079019978550        2.01103009021648        0.46046929399767
C           -1.22511124203763        2.24000607949718       -0.04818872127910
N           -0.99000786246512        3.54328944683216       -0.36315468297923
H           -1.75113115487901        4.19683918162316       -0.31870948005919
H           -0.17343315948930        3.80873800427959       -0.88128918536879
C           -0.15837824510989        1.31235153305578       -0.11289795798872
C            1.13895559334423        1.85139203421750       -0.12662806589873
C            2.26251377280958        1.06346559927626       -0.07679046739906
C            2.12442039250224       -0.38042330771122       -0.00774925917822
C            3.41608400440986       -0.91070416198847        0.09281394473563
N            3.76179397680459       -2.27327159066175        0.19217234051107
H            4.76793535653596       -2.38641510166832        0.22942646437561
H            3.38563705034920       -2.83040450328350       -0.56724080747886
C            4.32293550630341        0.16640884964904        0.09544582841984
C            3.63435685908216        1.36320760046889        0.00660570487123
H            4.06668997133683        2.34662815327074       -0.01256390502154
H            5.39267148141746        0.05925459082734        0.16458028685230
C            0.85140766786337       -0.94963445060903        0.01947473238189
N            0.78200128312638       -2.33465668965729        0.21790526800854
H            1.64559212615579       -2.68130604438519        0.61622827983120
H           -0.02175900522789       -2.64478535892953        0.74708959720473
C           -0.30573400865498       -0.14993655087068       -0.11424520741452
C           -1.54544212392708       -0.81535015241653       -0.37762370139376
N           -1.49789093423180       -1.97954196353142       -1.06256950322220
H           -2.33940060536205       -2.51668036077640       -1.19178197117576
H           -0.61057565323915       -2.37175930295566       -1.32913168472885
H            1.28247028642406        2.92022407433434       -0.06206675820081
H           -3.05979397074731        2.90682544239925        0.76292693117537
H           -4.22636644836701        0.89015279574097        0.94030460608254
