34
 energy: -56.984929844883 gnorm: 0.000675663615 xtb: 6.6.1 (8d0f1dd)
N            5.83454854292135        0.52459129026844        0.10135497093526
C            4.68288500953067        0.49911214623555        0.08784102701197
C            3.29249054744293        0.41280004232420        0.05234942299313
C            2.38956885168597        1.48449177178670        0.01499265257845
C            1.09862099524902        0.94783191554276       -0.04430951440102
C            1.21607337559136       -0.49204549065408       -0.01114062891885
C            2.57363191127647       -0.80997887577950        0.04067515147317
N            3.14461021637104       -2.09543761811408        0.10143017961799
H            2.89072273588992       -2.67537233760136       -0.69164706851642
H            4.15531130446920       -2.03437912294895        0.16597673343655
C            0.06003040163279       -1.28513425873452        0.03521169198890
N            0.22735760337436       -2.66808522578973        0.16434469631011
H            1.15148209000513       -2.88567091717579        0.51652411052634
H           -0.49472860075547       -3.12880782530793        0.70117823956181
C           -1.19652817072680       -0.68470154380233       -0.03181988086175
C           -2.35352479167145       -1.53249923649014       -0.20835853038393
N           -3.52774043817207       -1.41603612891539        0.36668223489577
C           -4.11420632899192       -0.31108038691676        0.78168150793641
C           -3.81700751051882        0.96528814568019        0.38573801817258
C           -2.60117375217000        1.42035692841526       -0.18217071074663
N           -2.66609993969122        2.67172362684106       -0.71094632636233
H           -1.88708946889734        3.02037933724982       -1.24474559998270
H           -3.57265432958640        3.07891812265831       -0.86111986228424
C           -1.33398511550483        0.77891670260440       -0.08691924364850
C           -0.15643598989841        1.56179221530702       -0.06753484936400
N           -0.18072759645797        2.95834945921999       -0.01340692917623
H            0.72886138556586        3.32892353442694        0.22408087828503
H           -0.90694409656297        3.35148515217397        0.56946184470398
H           -4.57375459130464        1.72557895216925        0.53378242786459
H           -5.01058767769732       -0.48526419685115        1.36682475939879
N           -2.21938548317535       -2.63074117418367       -0.97793773252900
H           -3.00220935643734       -3.25591589212611       -1.05921173050515
H           -1.32273307352293       -2.87948618253228       -1.35920097549071
H            2.68084216403488        2.51970531222446        0.00161058748188
