30
 energy: -54.923943072268 gnorm: 0.000608630789 xtb: 6.6.1 (8d0f1dd)
N           -1.36455351914709       -3.70795533040416        0.04311963129570
C           -1.51976704664798       -2.56834544361961        0.01641805736452
C           -1.81066440133221       -1.18435628013061       -0.00534526551188
C           -3.19765615759286       -0.91149746796528       -0.01865006373194
C           -3.81568994027748        0.34465783060448       -0.00988978150473
C           -3.25612003814597        1.61201649112257       -0.00747832721734
N           -4.10512126167540        2.67607272289443       -0.02898571396627
H           -5.09457139906744        2.54065793414915        0.06909348436951
H           -3.74017912743197        3.60567760329412        0.06641594343517
C           -1.88383133358179        1.92492743840635       -0.01232938293308
C           -0.74315749214378        1.14579194776146       -0.01220996292221
N            0.36835705195081        1.91504360410695       -0.01329195152808
C            1.53975031301925        1.34596532517620       -0.00799367618107
C            1.71642089637274       -0.12335510441082       -0.00066809164104
C            3.09301272258902       -0.31556356304455        0.00276855643387
C            3.84637403231128       -1.47965693227220        0.00816618908369
N            4.51896902209250       -2.41525888787128        0.01270783762460
C            3.64821525825680        1.02187569863556       -0.00135479790819
N            4.95408896040564        1.29939148548933        0.00144544861555
H            5.24586907609922        2.26078566257412       -0.00148243302448
H            5.63297679272647        0.55832539925105        0.00617588613883
N            2.72209731782136        1.98090747854141       -0.00771050048883
C            0.58446312350395       -0.91602608685175        0.00040775197316
C           -0.67956940475492       -0.32199508861495       -0.00589118560714
H            0.68072535070555       -1.99293518915763        0.00486123106535
H           -1.65108218503130        2.98329802538493       -0.01584884201605
H           -4.89987351402271        0.31425082921459       -0.01122941876951
N           -4.04317681843990       -1.97801300635533       -0.05346109699762
H           -3.68673530204308       -2.91606344729425       -0.00181366531533
H           -5.03406051551868       -1.83634067871430        0.00805509366486
