33
 energy: -58.873922741202 gnorm: 0.000663360452 xtb: 6.6.1 (8d0f1dd)
N            6.81663617015827        0.26402781261439       -0.29990486523610
C            5.67068583185186        0.25000461901964       -0.21498698519798
C            4.27475230358596        0.22371497649611       -0.11096231494315
C            3.48529891558184       -0.94181796125558       -0.20619850152153
C            2.15825061210597       -0.56099667173786       -0.02838475482098
C            2.13572164082703        0.87654522953526        0.16096330383254
C            3.45343705302679        1.33879200554682        0.09695283719646
H            3.78589600375626        2.35441831213242        0.20056588324043
C            0.92624245780565        1.52760624689839        0.30039287976766
C           -0.29236588896507        0.84220927481034        0.27915620351522
C           -1.46205992577087        1.65248028238247        0.33701576066095
N           -1.38340387937780        2.88800282975942        0.86448609013559
H           -0.53364438754818        3.22862075908145        1.27805381092828
H           -2.16166957976738        3.52124107762839        0.77091921457200
C           -2.73621936616570        1.32563307049774       -0.22573745114411
C           -3.57706976909671        2.41323032499678       -0.54241793709230
N           -4.25224476330204        3.30677180251227       -0.80103647570879
C           -3.27931839290686        0.07017629970919       -0.41984493458461
C           -2.75637959848250       -1.14648760245472       -0.00462433258809
C           -3.64871434251393       -2.23778647562496       -0.03266612965251
N           -4.36012040232925       -3.14068900824620       -0.05312992056188
C           -1.42984841891577       -1.43009315758536        0.42460258342706
N           -1.26039490252726       -2.61517529343008        1.03831829060033
H           -2.04503005137082       -3.23345165361593        1.16755310341260
H           -0.34307172182385       -2.90802599492455        1.33295404080946
C           -0.27634112540756       -0.62048979618671        0.18357967660912
C            0.95785581490045       -1.27892366329864       -0.02756952945604
N            1.03818614390674       -2.64941197431580       -0.25047724362738
H            0.27559471981979       -3.06845959416954       -0.76263519230643
H            1.93985242663665       -2.92740923530303       -0.60867587542399
H           -4.28328780553918        0.04249261734121       -0.82812183118668
H            0.94818357916839        2.60763514383376        0.31982659058999
H            3.88069064327882       -1.92947028704615       -0.36225611094583
