33
 energy: -64.473941040866 gnorm: 0.000893565393 xtb: 6.6.1 (8d0f1dd)
N           -5.85935414578071       -1.85024540633610        0.79110975107423
C           -4.78126993304382       -1.53610967063370        0.55409666489206
C           -3.45189556478959       -1.14053472211662        0.27458469343967
C           -2.49510227799224       -2.13854042840139        0.37818791867466
C           -1.13281060720997       -2.08090528066114        0.13218323299003
C           -0.28036865073792       -0.98984088870608       -0.02673540816611
C            1.10398900459392       -1.27883543050077       -0.16877835232732
C            1.53224194364450       -2.61240869603638       -0.35053960656732
N            1.88295002347646       -3.69290540229270       -0.51078016114784
C            2.06296173567340       -0.27702701559258       -0.07393772256998
C            1.63980402673586        1.09959994193305        0.21890254214097
C            2.76361907819754        1.87865802902892        0.37962064611584
C            3.89526419167113        1.05089139086599        0.17113426123406
N            5.17310470841891        1.43060452632001        0.22335700270527
H            5.90398187507692        0.75959209308438        0.05030232712151
H            5.41794158123697        2.38422487467878        0.42727891151847
C            3.45921332288775       -0.28431886878701       -0.10961169700421
C            4.33591922496401       -1.33927794501362       -0.35674988288143
N            5.12865013190920       -2.14851223656382       -0.55508445768493
H            2.78997576003028        2.92698829485622        0.60573488553276
C            0.26712359889523        1.40165003862481        0.24283615939817
C           -0.07943685193831        2.72316315258710        0.59802245170548
N           -0.27173745245109        3.78053270771103        1.00162007459278
C           -0.70245998832129        0.41287003842028        0.01888526312945
C           -2.02493515134090        0.85000971954235       -0.27206606253676
C           -2.11946095812344        2.15535620934307       -0.81765754451964
N           -2.28047729394137        3.13718087153519       -1.39244639114440
C           -3.27219315537997        0.20256379828670       -0.16464684715347
N           -4.38923746401671        0.90305036135625       -0.46095498832704
H           -5.29493910496910        0.47644849597253       -0.36364565564387
H           -4.33200144017996        1.86959462484143       -0.73451860886079
H           -0.63490512243628       -3.04338698342315        0.13825604956154
H           -2.88061915616543       -3.11496640282605        0.64600056340945
