34
 energy: -57.790984948535 gnorm: 0.000629958152 xtb: 6.6.1 (8d0f1dd)
N           -4.15744538939451       -3.31014041355740        0.27448485932574
C           -3.43514790024258       -2.41584833214145        0.19154545498538
C           -2.56839555026589       -1.31464900621559        0.09722480493302
C           -1.20705597661030       -1.62173379315294        0.07916184906961
C           -0.05000462539901       -0.85659096835556        0.03962058781047
C            1.15405378155089       -1.57670603112531       -0.01883799152204
C            2.36913811096536       -0.94344071783302       -0.06504823983538
C            2.43577268028536        0.51106423320600        0.00881671500711
C            3.80875185572952        0.85973498274610       -0.02734439248520
N            4.32757613216576        2.14981707798316        0.01229698174378
H            5.32833912634722        2.16816967930779       -0.13512725397451
H            3.85560122703176        2.80259228632254       -0.59985076075306
C            4.55737310931072       -0.31698893420965       -0.08221269124758
C            3.70032085395081       -1.42252721664991       -0.09869205185170
N            4.08108414892633       -2.73514104603636       -0.22309375740063
H            3.39843252429802       -3.42556561563672        0.04315342819623
H            5.02775681830106       -2.95220008257533        0.04339758819132
H            5.63175262520090       -0.36584748103472       -0.11193449580068
C            1.28724625699904        1.26027886128999        0.17086843946424
N            1.39876887324824        2.60850228328658        0.39939075430495
H            0.62195869617543        3.08086529472694        0.83097984750234
H            2.30272272298208        2.90077152231659        0.73662925324632
C           -0.00567805277087        0.62186999658112        0.06831412631467
C           -1.10417716840825        1.43190805226634       -0.04696763490233
C           -2.49834010643134        1.18176969787285       -0.12172031082654
C           -3.28693719757568        2.33399680217752       -0.27307358335394
N           -3.93535494578784        3.27923998520885       -0.39326111622532
C           -3.18991811089630       -0.03602208411084       -0.01900960189435
N           -4.53613200974166       -0.00788418639200       -0.04101586123396
H           -5.02217540561682        0.86784725819516       -0.14253087656349
H           -5.06176920685775       -0.86411099974718        0.02167197463834
H           -0.90389194884306        2.49511886399721       -0.12521219357721
H            1.10390788033955       -2.65720707276892       -0.03553035591534
H           -1.02617821236389       -2.69293699664128        0.10029766803108
