28
 energy: -46.656897488704 gnorm: 0.000610410462 xtb: 6.6.1 (8d0f1dd)
N            4.88945186235587        2.06971506978860       -0.52196136276484
C            3.97881714567858        1.38844402057023       -0.35997369907640
C            2.86420733946830        0.54509473422901       -0.16749400314768
C            3.12163445062117       -0.83387915995798       -0.13858982859794
C            2.23662224804579       -1.83899875522152        0.12062749175613
C            0.82315770345929       -1.81775796806823        0.25820244128870
N            0.30904304734929       -3.00835865073320        0.63682949238643
H           -0.67045289079309       -3.08380442074580        0.86305895730341
H            0.93164147015673       -3.74692751809725        0.91529996250141
C           -0.07669405770776       -0.74334611064151        0.01564002063153
C           -1.44477266251001       -1.01583897811675       -0.21621148265196
N           -1.91285420697770       -2.29050729712891       -0.53042939313706
H           -2.87496146320246       -2.27379118669633       -0.83759602997822
H           -1.32222513114573       -2.83461462568851       -1.14357616177824
C           -2.39354435197521        0.00324765420786       -0.10489387720227
C           -1.98221940678932        1.36164455483539        0.21772246861439
C           -3.18601560963907        2.09449315160966        0.26574659388029
N           -4.23078797094356        1.31748956895741        0.01364277771699
C           -3.77983943100583        0.07095099007943       -0.22263266711077
H           -4.48378415796637       -0.71235294842304       -0.44325927033879
H           -3.31124919889370        3.14008813354883        0.47640164902711
C           -0.64674247797953        1.66384573055828        0.29741411450221
C            0.33948047813864        0.67296477058586        0.13375786223612
C            1.63700448615980        1.16904125578349        0.05071848799863
H            1.70641569963308        2.24973527945706        0.12262549867869
H           -0.33672087044956        2.69037650803658        0.43263794258256
H            2.66728857423470       -2.82882243173551        0.22116850487600
H            4.15830837697759       -1.12008145569347       -0.27067657049694
