36
 energy: -61.222035615854 gnorm: 0.000670388495 xtb: 6.6.1 (8d0f1dd)
N            5.57211150266782        1.90652545021168        0.14452118268202
C            4.68665861784191        1.17415544785891        0.05219034942192
C            3.59062724722420        0.30681371527191       -0.06760213377511
C            3.87054779544639       -0.96165466116217       -0.62097575927991
C            3.10803085327919       -2.07938372406971       -0.53958210787988
C            1.80639708979994       -2.23071445495300        0.02107223306316
N            1.49362461697895       -3.52825557870790        0.32386772448129
H            2.24071932903082       -4.20095442684748        0.30288544402483
H            0.73883981994959       -3.72069638009872        0.95791373459531
C            0.81126254279839       -1.23889073413945        0.12244762689184
C           -0.52167120202323       -1.68988913159207        0.16696680173678
C           -1.58313929833642       -0.82596576423002        0.11415854693792
C           -1.35577546167800        0.60701332464652        0.01680885158669
C           -2.59580372274471        1.23004700417745       -0.07046057976021
N           -2.86860372336575        2.59544201726222       -0.19378106389267
H           -3.86528011615467        2.77676531833501       -0.20174498564956
H           -2.40689026083010        3.17045130800383        0.49988344798565
C           -3.59700596628292        0.20845545925841       -0.04610571472037
C           -4.96659104540352        0.44394127357285       -0.11691069192844
N           -6.09774794747152        0.65483915959197       -0.17768717636908
C           -2.98268989773313       -1.04699092946044        0.05106210048420
N           -3.62750616435154       -2.25898215065530        0.18043316937903
H           -4.60195014014635       -2.24874534298786       -0.08176336582616
H           -3.12164959529801       -3.06287316137695       -0.15766972083336
C           -0.03795576633698        1.08655096886732       -0.02524850090351
N            0.12464609665708        2.45805003235503       -0.23142001086837
H           -0.69336509496448        2.86598508905798       -0.66366073646172
H            0.97408571151569        2.71914675372513       -0.71291640640525
C            1.05344069522387        0.21133175334065        0.11111270879413
C            2.34416633438383        0.78700772785423        0.37651875320186
N            2.37257430227178        1.93773783897091        1.08359794195083
H            3.25042521123001        2.40395722077648        1.24328507591964
H            1.51659194883306        2.36869255522580        1.38837535676257
H           -0.72605377657616       -2.74983329965663        0.12805315845176
H            3.55301085734506       -3.00156741613405       -0.89313938729004
H            4.85992812182086       -1.06669210219253       -1.04936139470746
