29
 energy: -51.214511532081 gnorm: 0.000757016344 xtb: 6.6.1 (8d0f1dd)
N            6.66967681374630        0.54584207661605       -0.33316855037396
C            5.52810722845968        0.44762930253741       -0.24668574730895
C            4.13728029358856        0.31936616988171       -0.13954203429256
C            3.43005284881651       -0.90138853852931       -0.28873060066999
C            2.08567264568160       -0.62703093228537       -0.10620491237184
C            1.95385580152164        0.80573233001036        0.15645885893813
C            3.24682998253566        1.35826222552359        0.12898579194456
H            3.50664450820367        2.38824970426729        0.28544485069944
C            0.70877237534815        1.34936766215431        0.35282620358358
C           -0.45820273533334        0.56223550600104        0.26944135568658
C           -1.67171158993494        1.25180584548829        0.36087808304116
C           -2.96541644179835        0.84708605665396        0.06288487100273
C           -3.98712260278037        1.81319443812644        0.09299510299943
N           -4.84950233296204        2.57375800013489        0.10720666264539
C           -3.34034493041765       -0.46469316195293       -0.37114391548020
N           -2.68254903337846       -1.57156389138288       -0.10933526091486
C           -1.43879873366437       -1.76137673992327        0.27196044758307
N           -1.21154110624444       -2.97594929773942        0.79888642392332
H           -0.29968333057158       -3.23892716745587        1.12583767598778
H           -1.98383325065946       -3.61342152432204        0.89089376045286
C           -0.31045217819044       -0.87620834360525        0.10686553667992
C            0.94558582447360       -1.42630278402462       -0.08266845986351
H            1.05390578793722       -2.48925311362476       -0.25480275846079
N           -4.51017196983694       -0.61701923913036       -1.01550374833973
H           -5.12897458002810        0.16554883107359       -1.14449766244520
H           -4.80904772278479       -1.54220849765889       -1.27017122494953
H           -1.58157471394991        2.30447870348126        0.60844239470206
H            0.60428554031596        2.41233283246182        0.52344703177839
H            3.87753063820696       -1.85504393377735       -0.49897819237741
