34
 energy: -56.998763457994 gnorm: 0.000973808632 xtb: 6.6.1 (8d0f1dd)
N           -6.11348296663509       -0.33241532640349        0.45832946525258
C           -4.97065270790571       -0.29863291875012        0.31466977949091
C           -3.58793238855449       -0.22403728574041        0.16538913680823
C           -2.69795540416796       -1.32296762775112        0.12944344462854
C           -1.41227581260332       -0.81815053911325       -0.00825237557908
C           -1.50179803397724        0.63189059892844       -0.05451790862271
C           -0.35300588484198        1.39271216916798       -0.16889927211682
C            0.90884558513565        0.80798097434705       -0.22603052126171
C            2.03692108938219        1.68925156742860       -0.34437039945937
N            1.79268431131128        2.95530081324682       -0.79644944031513
H            0.96917983790607        3.12810173661327       -1.34362486100613
H            2.57992195174909        3.56078423744476       -0.95073695211159
C            3.32771068603871        1.45554496520828        0.11424606256655
C            3.85354938943916        0.22838984941169        0.53163454913535
N            3.43545766868602       -0.95986362238823        0.13734110596832
C            2.27528577020590       -1.29811238711796       -0.38412139872905
N            2.31168595242693       -2.44809827803492       -1.08810536012722
H            1.47214140106159       -2.82186907982214       -1.49586754313180
H            3.19776019696233       -2.90468381983680       -1.21634560091659
C            1.00810217432603       -0.64900697132365       -0.18892514790400
C           -0.15278900579527       -1.42773094670507       -0.06968982707839
N           -0.10235137512601       -2.82436766165276       -0.00101625646867
H           -0.98370973698168       -3.21107128060848        0.30653133570820
H            0.67588743355223       -3.19934405190664        0.52368025770992
N            5.02473620301520        0.21528770007558        1.22160644609986
H            5.35626888899796        1.05453730798139        1.65959732669272
H            5.35690466726426       -0.67050258816618        1.55931169393462
H            3.98895234932844        2.31140745579435        0.17191117943249
H           -0.44734306689007        2.46895634639479       -0.13550853226746
C           -2.85848978723839        0.97718820967537        0.06729512551014
N           -3.40296580637492        2.25513027319901       -0.00385111830492
H           -4.36042424099317        2.30045058133310        0.31673014869949
H           -2.82436059040930        2.97861218313645        0.39836324517573
H           -3.00936192339523       -2.35116176526719        0.18271815218653
