22
 energy: -44.334733516340 gnorm: 0.000988423557 xtb: 6.6.1 (8d0f1dd)
N           -0.64789093986760       -3.85999333505745        0.32645274113614
C           -0.89823920935006       -2.75213206191728        0.16321594323559
C           -1.25353118475031       -1.40075097704114       -0.04733446192965
C           -2.62335237600093       -1.12248136981262        0.00650389310013
C           -3.26295486564589        0.08799822574440       -0.05485979771824
C           -2.63578832803812        1.36344824124122       -0.02496181794569
N           -1.37363673275370        1.63691148711136        0.22297644677206
C           -0.26750571101482        0.93558551859311        0.12214031625495
N            0.85977595752595        1.57174818292026        0.37014863227505
C            2.03099207452556        1.01758248177630        0.35390967714323
N            3.25127596169497        1.50976122671795        0.32096149180295
C            4.03108890891680        0.49061846567793       -0.06726177508036
N            3.40697834998058       -0.62823964384536       -0.42388347306930
C            2.13450683371020       -0.41309312003695       -0.13954952865095
N            1.03099998005337       -1.01136892108550       -0.43252568937459
C           -0.15836781194405       -0.50855729986240       -0.21658417449472
H            5.09821691637646        0.58977585480096       -0.12732127934208
N           -3.41561667514360        2.45308106146716       -0.14852957465544
H           -4.41342912354465        2.37802345118637       -0.23038191671439
H           -2.98914027032071        3.35666405948913       -0.03735108204241
H           -4.34336638164580        0.08803723385340       -0.03290488048831
H           -3.25284339006501       -1.99972331172110        0.10017971288687
