33
 energy: -57.280992768179 gnorm: 0.000930737641 xtb: 6.6.1 (8d0f1dd)
N           -4.94453032702136       -2.43574778548124       -0.09941732883798
C           -4.04652024972564       -1.71468006488112       -0.04398625102160
C           -2.98799626574185       -0.80202345590600        0.02947925677923
C           -3.28884379288125        0.55481158091893       -0.23425927227603
N           -2.54653787809916        1.59236431382158        0.11409164193566
C           -1.26852011584750        1.67057891944791        0.40737710157656
N           -0.94531092327711        2.84120265913621        1.01074947127416
H           -0.03309555267901        2.96022268239486        1.41558746846747
H           -1.70698744838503        3.41724212308286        1.32680481625002
C           -0.20591021262108        0.75233893912854        0.10481794563205
C            1.09375467437077        1.22574980688759       -0.11117617871348
N            1.37906114172938        2.56852068874961       -0.32799972855471
H            2.24466626243064        2.69735996584275       -0.83293241361570
H            0.61895464734094        3.11371280168338       -0.70902826169081
C            2.16858823827272        0.32344027495808       -0.11441054136037
C            1.92262910659004       -1.09303975586004        0.08984106418775
C            3.22333178042311       -1.69293122365988        0.00677077190945
N            4.16245042777490       -0.78204273818388       -0.19925668429700
C            3.54844460037223        0.43311532842459       -0.26754757315872
N            4.31016378604162        1.57179335398714       -0.49955980068443
H            4.11100582860515        2.33685980248489        0.13255158278624
H            5.29481608167176        1.33743032196239       -0.49597569592426
N            3.51851283479533       -3.01256043332449        0.20013240751530
H            4.44544121962075       -3.28289569125479       -0.08738414088465
H            2.78707917285957       -3.67327563050914       -0.00514836783929
C            0.65847052990054       -1.56737767197036        0.25773460282671
C           -0.45584248495861       -0.69323252516234        0.21315002303941
C           -1.69497414886603       -1.30806717505286        0.26610512589564
H           -1.67303785135070       -2.38222272665870        0.41658296017830
H            0.47395299902384       -2.62683798968350        0.37432751448452
N           -4.47921173363757        0.86473941864157       -0.79297349930666
H           -5.17249145693509        0.14812562817075       -0.92359442046272
H           -4.73858764698637        1.83238329346183       -0.87131561070369
