29
 energy: -55.996990596743 gnorm: 0.000893717626 xtb: 6.6.1 (8d0f1dd)
N            1.32402537146718        3.61613576419787       -1.00331549610409
C            1.55551855689691        2.55780562367181       -0.62581792968875
C            1.97415058916699        1.24881244841787       -0.27256488852589
C            3.36284675001033        1.08997319270735       -0.38658369033853
C            4.13159534867945       -0.00659315185469       -0.08236602455612
C            3.63257415357266       -1.27117340979556        0.30384033280767
N            2.42342107965486       -1.73492686732486        0.05436939044649
C            1.26922706698242       -1.15750537212904       -0.16483681008389
C            0.21570869862060       -2.03729743003313       -0.49434719059075
C           -1.08405490404961       -1.62072794170082       -0.39339986742434
N           -2.21178784487810       -2.33994555918949       -0.56762140301038
C           -3.21550102447579       -1.53377290676402       -0.24268870036184
N           -4.49220057205629       -1.91082003982393       -0.29153623630847
H           -4.71736842297956       -2.84186870742824       -0.59626971222438
H           -5.22225938390772       -1.26597207010224       -0.04091209950929
C           -2.76794526906843       -0.20922775429193        0.17442148792979
C           -3.64016068734783        0.79868354628461        0.56942524235833
N           -4.44131502482639        1.56284086425171        0.88257763510716
C           -1.39005010740683       -0.25512143540911        0.06474180332028
C           -0.34954314745696        0.67465585944638        0.23120192036658
C           -0.67965260874647        1.97039847411703        0.68200848679926
N           -0.99603020601352        2.97321832187813        1.14164940512109
C            0.97412456973139        0.28395581147147       -0.00262001081042
H            0.45462894322792       -3.06521585896299       -0.71202568903254
N            4.47793176240795       -2.16698862887394        0.85938233119518
H            4.14169286907803       -3.09665385680364        1.04158621810747
H            5.45086689182032       -1.95694009700792        0.98439058116838
H            5.20632943619279        0.09663903380889       -0.14407421281937
H            3.89508508471458        1.98120208124463       -0.69737957973567
