33
 energy: -58.867095194132 gnorm: 0.000532663793 xtb: 6.6.1 (8d0f1dd)
N           -4.92118370421135       -3.33255831586606        0.41020355305981
C           -4.19973251185286       -2.44758847513444        0.28321861567580
C           -3.31239703877652       -1.36036460447286        0.13552229877218
C           -3.92547058216476       -0.09477255042293       -0.10675846135738
C           -3.29979043325860        1.10472369634006       -0.24358571481969
C           -4.11084352304111        2.23092786085174       -0.50997696899675
N           -4.74693244904631        3.16326803776513       -0.72175434285716
C           -1.89430872596449        1.41739579490286       -0.08638241622146
C           -0.80988766661915        0.62150353745361        0.09619527780764
C           -0.80701817419552       -0.85951991518719        0.08007014563067
C           -1.96626373341900       -1.65667665614425        0.17138176967651
H           -1.75557417721815       -2.71704857743083        0.27650922676366
C            0.39817597604346       -1.54083302186645        0.00628757700867
C            1.61255751457854       -0.87218734316815       -0.06473826769905
C            1.63633741059399        0.57967701409213        0.05229488347670
C            3.00358134146581        0.98687839546604        0.01580061493368
N            3.47638820144735        2.27864598491845        0.08380972826737
H            4.47482191455376        2.35397115978365       -0.05933206640028
H            2.95218835080536        2.96517144202173       -0.43970885923502
C            3.78612537295493       -0.16872657264404       -0.08091827971109
C            5.17699343994135       -0.19928707215233       -0.16512193164290
N            6.32425068208836       -0.21682023630949       -0.25480369928501
C            2.93437954710863       -1.31947945029534       -0.12209983704799
N            3.38153825919035       -2.60348073191347       -0.14864446476227
H            2.73466097091747       -3.32819902453845       -0.40565905179213
H            4.35107725422922       -2.75830592642266       -0.36917195041716
C            0.47968581860572        1.29108150948048        0.26204642317691
N            0.53402983094055        2.61865856791951        0.57693729049044
H            1.41955194123396        2.94269848750943        0.93332670872047
H           -0.27444861878150        3.04216205350096        1.00153280043366
H            0.38547129635307       -2.62162071562174        0.00194395688750
H           -1.72017588678762        2.48486550974983       -0.15424314625324
H           -5.00522102741544       -0.10900431456566       -0.20408170108332
