29
 energy: -51.201113341930 gnorm: 0.000527928125 xtb: 6.6.1 (8d0f1dd)
N           -5.30467518007644       -2.19440760807532        0.00809579179335
C           -4.40024383373476       -1.48245279235089        0.00165948675433
C           -3.32100832656961       -0.58100408734703       -0.00258645859978
C           -3.66796560305870        0.81645776819583       -0.00451926993813
N           -2.87382226239859        1.87172442544187       -0.00906585727663
C           -1.55133740257101        1.89419670266043       -0.00682279031144
C           -0.55825102304691        0.92263633814449       -0.00039720081656
C            0.77187708966618        1.39792322825778        0.00677739003830
C            1.83736390471034        0.54177948014474        0.00612396846827
C            1.61377527487189       -0.91123692776722       -0.00458210531816
C            2.85624525244344       -1.53234091556530       -0.00807223831069
C            3.84798881640161       -0.52697343920497        0.00234197899251
C            5.23033058446410       -0.72920940479541        0.02127258135208
N            6.37321201620240       -0.85369001884041        0.05137133343017
C            3.24026622255299        0.74703700176337        0.01352273661596
N            3.89385397143516        1.94329494722394       -0.03874965897017
H            4.88170808349233        1.93440885556983        0.15731264172942
H            3.39001035627120        2.76751986358893        0.24049374564784
H            3.04937709112073       -2.58839697769595       -0.01520826691615
C            0.31903533884293       -1.39182097557294       -0.00865300549803
C           -0.78392680253630       -0.53193916792811       -0.00462635864007
C           -2.04643390811420       -1.12888379766428       -0.00505298359975
H           -2.03439497536048       -2.21458106724841       -0.00599343297647
H            0.14899421555846       -2.45972917218126       -0.01491546973532
H            0.92757251308760        2.46920933063990        0.00863449088550
H           -1.19014206119067        2.92142743345125       -0.01025342056879
N           -4.97378753089701        1.12514081783232       -0.00199906998810
H           -5.68259306677236        0.41040368639414        0.00023632436937
H           -5.22699971199416        2.09878427342879       -0.00553139621288
