30
 energy: -50.106909278446 gnorm: 0.000664946513 xtb: 6.6.1 (8d0f1dd)
N            4.70157967487324        2.28312198698530       -0.33257753544284
C            3.81087867886938        1.56100001036905       -0.22248532790311
C            2.74286559356322        0.65640916843474       -0.09434219851538
C            3.06673135462092       -0.72300026471198       -0.17542813124549
C            2.18309688120716       -1.77463863903235        0.05156706877998
C            0.79982897569549       -1.80350069460439        0.22573915672413
N            0.30096237248979       -3.03780997159536        0.50535629471766
H            0.94059563313183       -3.79446383954161        0.67246374481820
H           -0.63333383489584       -3.13579716672871        0.85873681786021
C           -0.15023919619833       -0.73797063329294        0.09066524941281
C           -1.49193063299462       -1.07395350723272       -0.08044150155132
C           -2.48888893577442       -0.11640726947428       -0.07190150660453
C           -2.14373745264407        1.28276965449689        0.17248219765179
C           -3.38157753293521        1.96206831262714        0.17186526189873
N           -4.39092033136826        1.12942087105555       -0.05086168197467
C           -3.88332611483524       -0.11658067845734       -0.20871531158596
N           -4.72367056797153       -1.19470366969678       -0.38876037315932
H           -5.66170636571447       -0.91695050485218       -0.63660045420818
H           -4.35568296656861       -1.94366401622056       -0.95535171602308
H           -3.55857651550007        3.01096265417449        0.32101629724376
C           -0.82960551279157        1.63820648027905        0.28465637513022
C            0.20902842698825        0.68116017947220        0.18299975877573
C            1.48663679425534        1.22198577157172        0.13328004499955
H            1.52082533321170        2.30287857686127        0.22635007672494
H           -0.56116722982855        2.67902875973739        0.40734360784336
H           -1.77974361303668       -2.10097489250342       -0.26195302321192
H            2.66060929966536       -2.74877548207882        0.09902765249678
N            4.36036213627347       -1.03705217032752       -0.41628082005940
H            4.65966598634671       -1.99459910891197       -0.44678351790053
H            5.04295392266675       -0.30708982640214       -0.52979812649447
