38
 energy: -64.666237196138 gnorm: 0.000567733106 xtb: 6.6.1 (8d0f1dd)
N            4.99497565225704        2.61365226894411        1.07850743984404
C            4.26225794719722        1.79363984827519        0.73168740237122
C            3.38802746069337        0.78520762553531        0.30209563776149
C            3.91995188690015       -0.50444759488280        0.15559083620873
C            3.21829994462950       -1.60926906252643       -0.35511303918445
C            1.86220818706466       -1.81509218976401       -0.51184934521031
N            1.51515960170971       -3.02518591267766       -1.03880343810103
H            2.23272293663321       -3.59549276942617       -1.45151356696165
H            0.56770463309188       -3.17009907276151       -1.34185799431723
C            0.76294659179943       -0.94284270925103       -0.16705285808011
C           -0.48464795555502       -1.47529853657363        0.13677020164101
N           -0.68876660340495       -2.82753115094686        0.42890787038644
H            0.12390114589711       -3.29548277238686        0.80554627462676
H           -1.50171732889348       -2.95715604779423        1.01510523077856
C           -1.62574750368712       -0.63992388584553        0.15063088576938
C           -1.49378418249270        0.76814737273324       -0.16906781026221
C           -2.78858011358254        1.34673258495062       -0.11631081884664
N           -3.10662680100964        2.68490686484001       -0.34347316922132
H           -2.54888737579298        3.33351663774332        0.19814721324597
H           -4.09490386467767        2.86372341569683       -0.21036333646001
C           -3.69175087722328        0.32080985937715        0.17647002458082
C           -5.07010305123771        0.45812783617921        0.30142612720132
N           -6.21307669217268        0.56458964143626        0.40400445002698
C           -2.97592738616080       -0.91074027717577        0.32529537214180
N           -3.58689305303256       -2.12947908633488        0.62784863039055
H           -3.29763056340255       -2.89452675197385        0.03219096214620
H           -4.59614734618235       -2.04743776198158        0.64527710959206
C           -0.26389653991875        1.31608478933360       -0.47065417278262
N           -0.17635006775741        2.62306780026277       -0.86715006170791
H            0.64750449456887        2.90944202768002       -1.36914253663091
H           -1.04206990092275        3.02682777345395       -1.18951273725572
C            0.92149763514314        0.51756029176792       -0.26672777663990
C            2.08200325886261        1.21118300278600       -0.03882011470182
H            1.99119063651930        2.29115321242461       -0.01657638895780
H            3.84578252234707       -2.45191371440004       -0.62790611013603
N            5.23171265389187       -0.68769957400245        0.44311020286837
H            5.78973733984848        0.08894363534106        0.75345164413879
H            5.66769748955291       -1.58048783655792        0.30450295924058
