28
 energy: -46.673780525580 gnorm: 0.000858507578 xtb: 6.6.1 (8d0f1dd)
N           -1.28700339875266       -3.89756173661109       -0.02223607413648
C           -1.38202218025322       -2.75341224168114       -0.00740112303024
C           -1.62672160104676       -1.35547184444914        0.00861039465863
C           -3.00732004035078       -1.08765817260701        0.02327959349697
C           -3.67035883132353        0.10831454452407        0.02759915915716
C           -3.12098579303343        1.40520144804174        0.02409961957258
N           -4.01873554324808        2.44680019604276        0.08476198397800
H           -4.97827674825317        2.25865697998283       -0.14897120915783
H           -3.68771359269631        3.37189413418723       -0.12870756273215
C           -1.77273016351909        1.72962961671779        0.02483020097835
C           -0.58799112372408        0.97341004759375        0.02249166789811
C            0.59412586823971        1.70859204549134        0.02647658083702
C            1.84110153172102        1.09916042147343        0.01147240934694
C            1.91198297853615       -0.37217192270025       -0.00913609861913
N            3.18105913161930       -0.79322068462803       -0.02902527963752
C            3.92739890177601        0.32983581160265       -0.02219660426762
N            5.26972050656627        0.25027051830122       -0.01263471111480
H            5.68703017968105       -0.65738434202635       -0.12012801168762
H            5.83014290722501        1.07304799045689       -0.14052312909012
C            3.15467906724887        1.52272825859562        0.00322957487173
H            3.53972419878982        2.52341040518402        0.01374532105262
C            0.75231683781152       -1.11449384301921       -0.01058935831355
C           -0.50757372490663       -0.50212651408785        0.00655041329416
H            0.82221963585454       -2.19179766612869       -0.02418947156256
H            0.53914848885918        2.78910362794609        0.04027490259850
H           -1.58964931275530        2.80055073000616        0.03034214590769
H           -4.75254241025898        0.06042954983217        0.03634946204260
H           -3.63162925950640       -1.97409053924103        0.02584545645856
