32
 energy: -54.356585305339 gnorm: 0.000680831600 xtb: 6.6.1 (8d0f1dd)
N           -3.57165337902106       -3.48747808965278        0.48511963535787
C           -2.87309793210483       -2.58736389033812        0.32661042299579
C           -2.02689821639488       -1.47740673613146        0.13407895257978
C           -0.69035573019330       -1.77837524919588       -0.13280901417437
C            0.45220158547372       -0.99459382144851       -0.18750649354867
C            1.65522369949525       -1.72003592543008       -0.33844889803675
C            2.87560810465992       -1.11838043176521       -0.20204234307228
C            2.94216504104320        0.29133296685715        0.14997082933051
C            4.28489291933459        0.60544647752082        0.32796146111949
C            5.04068393306358       -0.55539504869312        0.07531863440808
C            4.20233328693799       -1.60389192697418       -0.23886042791369
H            4.49223464388942       -2.61168757702348       -0.46968732680756
H            6.11416446923616       -0.60596238735237        0.12863397347927
H            4.70603464148744        1.56078685151426        0.58904984762502
C            1.76821721572083        1.05258865598041        0.22398038345803
N            1.90342668975221        2.40070371761842        0.55169242538278
H            1.15530438838415        2.79775160348783        1.10183406597613
H            2.81433027606520        2.61201886297598        0.93155226488118
C            0.51496287375134        0.46392966427688       -0.04778069345881
C           -0.61124793346728        1.29796699320555       -0.32098159304747
N           -0.35574610272963        2.54333620014407       -0.77694873898077
H           -1.11356998465112        3.15588849479321       -1.02725476250207
H            0.59171044023720        2.81912840618010       -0.97532631598058
C           -1.99117454726774        1.00624686211847       -0.15342288946615
C           -2.86105294560591        2.09974615776559       -0.31824629225640
N           -3.58360019433637        2.98866983320497       -0.44669368402925
C           -2.63848527261442       -0.20551218190793        0.17930862009390
N           -3.95323252892852       -0.15583707287197        0.48226052462149
H           -4.46541669265910       -1.01095866321920        0.62229994231784
H           -4.45716375628254        0.71370216088050        0.43566878760268
H            1.59581315482145       -2.78514494008700       -0.51349113110758
H           -0.50927139289052       -2.84320862713709       -0.23611969315250
