34
 energy: -56.989209493352 gnorm: 0.000958106219 xtb: 6.6.1 (8d0f1dd)
N           -5.96450564328605       -0.56347535972376        0.53624203800120
C           -4.81830972619858       -0.48686895357768        0.44813016331802
C           -3.43890669555702       -0.35094587738753        0.30935356879363
C           -2.46810446396326       -1.36845361765705        0.52649354655353
C           -1.22567941765341       -0.83672075867878        0.25131219087989
C           -1.39966322379601        0.55158964640230       -0.11638141940557
C           -2.79371526735213        0.81895425524566       -0.10311766979734
N           -3.40334939645469        2.04604927784388       -0.38844853769754
H           -3.15267410074361        2.41337429468047       -1.29951940613568
H           -4.41153576010875        1.98320587388733       -0.29992613786335
C           -0.31258996374176        1.39501836688334       -0.28020757353746
N           -0.54250518599624        2.70983092468370       -0.56195857733000
H           -1.44695538590506        3.05654616178947       -0.27895226027765
H            0.21778160459941        3.36575336428096       -0.50609960865415
C            1.00909854948313        0.84836811508671       -0.11344436765132
C            2.04772836150534        1.71922613209605        0.14406915185571
N            3.29811521654126        1.54229127093606        0.55951597244577
C            4.01237446445160        0.44469361119582        0.43967349695514
N            5.24439453980281        0.51346798700516        1.00488873547082
H            5.93640261923016       -0.18936812598283        0.82121470402159
H            5.52879140870914        1.39514435837908        1.39367144353733
C            3.68035753950931       -0.73320076155489       -0.27047165311060
C            2.41416349743403       -1.20694867303045       -0.52524856159264
N            2.31188494256073       -2.35613148026724       -1.23498651236077
H            1.40675503028669       -2.75583646511451       -1.41230996960035
H            3.13472256295168       -2.80467897144050       -1.59435950154957
C            1.15560538767911       -0.61557648521351       -0.09845691967469
C            0.06540892260733       -1.41669144838851        0.17766747341210
N            0.16212632640063       -2.80816749647748        0.31999612530947
H            1.00007542527266       -3.12398084900912        0.78827328143584
H           -0.66936944071786       -3.20004801885701        0.73722228409376
H            4.50950078608584       -1.35860882399023       -0.58079824802754
H            1.82411305828838        2.78307537077902        0.13005323528031
H           -2.71247327102650       -2.36947691672281        0.83496171390149
