28
 energy: -51.481484678630 gnorm: 0.000711241809 xtb: 6.6.1 (8d0f1dd)
N           -1.24589724928823       -3.96215546624806        0.09118874516104
C           -1.50037447063510       -2.84316324043081        0.06853033881003
C           -1.90391446340746       -1.48445538099464        0.04126583015641
C           -3.29102919261811       -1.34182417211622        0.10359141110365
C           -4.04873434517463       -0.19298690194689        0.05634242304930
C           -3.56612011152003        1.12556752372727       -0.05090517949781
N           -2.31900717460542        1.56811075399114        0.00565656415423
C           -1.15491057239970        0.95671647596790        0.04922349326535
C           -0.07055705266128        1.85220298480873        0.13759171182634
C            1.22405796047011        1.40483589704255        0.09833073999136
N            2.36735233711229        2.11727812340664        0.14307215958208
C            3.35448879714396        1.22913406416451        0.05250407588306
N            4.64135197758439        1.58298117271313        0.06417249318388
H            5.36197548644837        0.88516474036839       -0.00136884240171
H            4.87918193174746        2.55593070966310        0.14573313212635
C            2.87882003236832       -0.13862664847424       -0.05867650339295
C            3.70577299184558       -1.24740046202972       -0.16319234897698
N            4.44295054303773       -2.12817318725599       -0.25053073253179
C            1.49310867485849       -0.03375104553234       -0.02987493831927
C            0.43793339960531       -0.93563368916420       -0.07366303401083
C           -0.87781865694552       -0.50125809901045       -0.01342860725917
H            0.65098766454302       -1.99365210868080       -0.14065841504710
H           -0.29136807257179        2.90486246989265        0.20506469312999
N           -4.47127552104840        2.12484123877008       -0.19009982893497
H           -5.45785878112864        1.94673381738726       -0.21143086847540
H           -4.12882508083933        3.06782571138652       -0.23374522778185
H           -5.12380792068432       -0.30805158347728        0.09561728642328
H           -3.84154829213703       -2.27286125112830        0.17897263438348
