31
 energy: -55.437808328348 gnorm: 0.000617138586 xtb: 6.6.1 (8d0f1dd)
N            6.86863092488645        0.00007682717812       -0.37869376546934
C            5.72399753564103        0.00000572902011       -0.28216066320113
C            4.32816584477127        0.00007759333077       -0.15768927839322
C            3.52631783771127       -1.15340111166218       -0.08393951512629
C            2.20601812902916       -0.72971929897565        0.05751370139416
C            2.20597755989035        0.73001686426373        0.05680219243237
C            3.52628036033978        1.15360044907149       -0.08504122085949
H            3.88190883053812        2.16621983517221       -0.12211796439536
C            1.00317241609732        1.39936683447177        0.16501138491609
C           -0.22359781579379        0.72961272340128        0.25001858904141
C           -1.38277526688339        1.55828808119617        0.36077919961707
N           -1.24532061427798        2.79017066760308        0.88245817856687
H           -2.01679096918555        3.43764703748715        0.85206556216810
H           -0.36440658836588        3.10367441956126        1.24988755452955
C           -2.68024639648264        1.24555208018889       -0.13553590069704
C           -3.55994166177292        2.33528499330181       -0.31741269700220
N           -4.26448195110728        3.23170836264824       -0.45997771387885
C           -3.20758225747772       -0.00018069426603       -0.43551356029991
C           -2.68011425831006       -1.24561286195187       -0.13450112041447
C           -3.55932256842285       -2.33577279328145       -0.31668462863152
N           -4.26520320729280       -3.23154527189642       -0.45572421236681
C           -1.38267801624198       -1.55783510497688        0.36218789407111
N           -1.24517239343933       -2.78927272120992        0.88488615087940
H           -2.01661833725110       -3.43680406100067        0.85503020908295
H           -0.36426318527405       -3.10243315218859        1.25261857415843
C           -0.22353918196114       -0.72920604619254        0.25072798649278
C            1.00323702327109       -1.39900546903849        0.16635402926503
H            1.02570284842513       -2.47783991449810        0.09431746940757
H           -4.21169671360219       -0.00040019999608       -0.84449957095891
H            1.02561576339166        2.47813102411793        0.09195097025988
H            3.88197644985054       -2.16604507087919       -0.12004626378829
