31
 energy: -53.840959992316 gnorm: 0.000370033585 xtb: 6.6.1 (8d0f1dd)
N            4.49151409003981        2.72037251336404       -0.05321662595630
C            3.65406217448510        1.93015052988680       -0.01031683287359
C            2.66893300936718        0.93466341694373        0.04347482142820
C            3.07908055507001       -0.39209506289384       -0.24188633216991
N            2.42498325870401       -1.48633552538180        0.10402908470897
C            1.15992565341011       -1.67016676750918        0.40004333006300
N            0.92415333750247       -2.84370979197349        1.02342777943550
H            1.71654053253419       -3.38243306331442        1.32803892153670
H            0.00317376882471       -3.06140026534504        1.36313033532050
C            0.02701056112275       -0.83632662852297        0.08091948673279
C           -1.21959357623358       -1.40959011411736       -0.17393020961808
N           -1.39306322668930       -2.77494706863122       -0.36159073748386
H           -2.28358964219070       -3.00198747290063       -0.77768442778006
H           -0.61998086806544       -3.26625312455018       -0.78530528864569
C           -2.36403565625719       -0.59094337779742       -0.21280634184783
C           -2.24119476379685        0.82754462718201        0.07302196317862
C           -3.59107397515307        1.31368158591598       -0.00701611083249
N           -3.99091922060229        2.61426288437580        0.12402218993364
H           -4.98496426697498        2.73874022947850        0.23037209207391
H           -3.41135805078705        3.21481888448829        0.68635507452314
N           -4.43626195093526        0.33899910943760       -0.30239493956094
C           -3.71238741927354       -0.80368152286411       -0.43513886012633
H           -4.22779125908658       -1.71803029864764       -0.67066736350875
C           -1.02412139365582        1.39632235142415        0.29229477923094
C            0.15750697811667        0.61765072028199        0.22500226742915
C            1.34586114866432        1.32929096383029        0.29539432384890
H            1.23657989613254        2.39392224173308        0.47259672570702
H           -0.92880900174813        2.46156459961635        0.45492989656824
N            4.28454520881261       -0.59595987552818       -0.81237005266608
H            4.91114844090417        0.17790908728416       -0.95322502039553
H            4.61978326236502       -1.53758871185602       -0.91237330995049
