28
 energy: -46.666690354083 gnorm: 0.000822914542 xtb: 6.6.1 (8d0f1dd)
N            5.67553344178630        0.62787867997536       -0.30884972925417
C            4.53201851320042        0.52683036702464       -0.22440549687949
C            3.14939514782960        0.36597708789453       -0.13349425985035
C            2.17628337102935        1.40057298363962       -0.30036943393061
C            0.92969610678000        0.84140259025041       -0.15430581889008
C            1.10134491681692       -0.59160204138325        0.10274607915815
C            2.50688331587495       -0.84910781753395        0.11255211494421
N            3.10471642602696       -2.05057389838646        0.39870484782837
H            4.08399917769055       -2.11856256086067        0.16803488769270
H            2.56434559125314       -2.88016340737430        0.21220628976957
C            0.01102787749618       -1.39551783703518        0.23452795275188
C           -1.30405160384451       -0.87851066868753        0.10244497418355
C           -2.32927555369091       -1.81542461594673        0.07383822537081
N           -3.56606662501223       -1.73446514766969       -0.39281603500126
C           -4.26684111283447       -0.65298957269727       -0.58525344942712
C           -4.01031896487665        0.64706998499030       -0.15086644721618
C           -2.77376015204898        1.19423902961041        0.17865164950901
N           -2.77880960171704        2.46658174897732        0.62518953815276
H           -1.92657930384349        2.92081532231002        0.90037282830488
H           -3.64974499484599        2.95129869774406        0.75350910060060
C           -1.47719533477618        0.57141233705807       -0.00299455756875
C           -0.36477488871480        1.37230280003261       -0.15260002749313
H           -0.46678069067724        2.43814648606661       -0.30722665152488
H           -4.85564060446616        1.32408282435930       -0.12255911463286
H           -5.22669707991267       -0.83508453013923       -1.06040882759715
H           -2.06444481199433       -2.83446886985318        0.34561590434370
H            0.12020204152376       -2.46240004328872        0.38115695980796
H            2.41210840154768        2.42913584022293       -0.50080476885166
