29
 energy: -46.384560580731 gnorm: 0.000886572614 xtb: 6.6.1 (8d0f1dd)
N           -5.53885883985985       -0.59750689379520        0.18706884688040
C           -4.38918152486238       -0.58034887185996        0.13039580740559
C           -2.99751469561109       -0.50299575450355        0.07975970510369
C           -2.08874603288167       -1.60761043396573        0.07133567718037
C           -0.80905561308950       -1.10810314305601        0.05372701495721
C           -0.89031851292557        0.34363234069757        0.00993077529458
C           -2.27660833780451        0.68877514785650        0.04933081753491
N           -2.79591300516392        1.98155450211676        0.02745076624791
H           -2.37766464831359        2.60350961113341        0.70849143896967
H           -3.80602052442867        1.98363828955344        0.10745330643396
C            0.23492774088257        1.11331022869548       -0.16420252496125
N            0.11371265836359        2.45924272023154       -0.39243297145067
H           -0.80976317949152        2.74891188770230       -0.67937117155793
H            0.86759600874758        2.92405210272205       -0.87180585740243
C            1.54664924403455        0.49333437919497       -0.04022833716879
C            2.60315351637962        1.33148789489343        0.18315782108949
C            3.99565244974811        1.08569254187165        0.34389139607695
C            4.67335433415835       -0.07550955711593        0.17681649957260
C            4.13496759518406       -1.35439972419801       -0.13192143856633
C            2.83070204927551       -1.71730230866345       -0.21045814132514
C            1.60957443472086       -0.98136349465432       -0.08012727516757
C            0.45270477499326       -1.71768568478338       -0.03711828302961
H            0.50289434315461       -2.79627871164837       -0.07779040181341
H            2.65848586217308       -2.77302719750064       -0.39192372784086
H            4.86728200875659       -2.13905476547826       -0.27183271343691
H            5.74916312733226       -0.04108035007298        0.29526394355436
H            4.57856786779882        1.96350775598481        0.59397914737430
H            2.35786788109409        2.38089046283431        0.29581625999519
H           -2.38425232036553       -2.63992703309106        0.08020737944955
