28
 energy: -46.664595847084 gnorm: 0.000732748750 xtb: 6.6.1 (8d0f1dd)
N           -1.05066075651270       -3.85291258005790       -0.00643168692260
C           -1.24708617009829       -2.72265375941395        0.00079378392365
C           -1.60045494282635       -1.34792555461547        0.00928455153249
C           -2.96922815539395       -1.10585688462792        0.01538513702373
C           -3.64903367766218        0.09540525773730        0.01345423515425
C           -3.12434074042371        1.39035640901434        0.01409628339982
N           -4.02669563613006        2.42538056699346        0.06583584770840
H           -4.99009085402829        2.22889775091532       -0.14370116804611
H           -3.70624971118042        3.35444873632545       -0.14593018652052
C           -1.76936606135116        1.74740742137941        0.02532189472960
C           -0.59407477385835        1.00911575496484        0.02694627445271
C            0.61291331384590        1.73760746026801        0.04028016966027
C            1.82129662301654        1.08487702751512        0.03002423973976
C            1.80133435225037       -0.40189062969293        0.00135338890969
N            0.66836889363006       -1.09851839014303       -0.00526120544112
C           -0.48825238315420       -0.46671394367095        0.00932576592656
C            3.10089856691375       -0.83810169051326       -0.00903117868668
C            3.93831440553499        0.31860342572298        0.01647291718111
N            5.28826938965119        0.27304203810040       -0.01572020029026
H            5.81880160430570        1.11342562773064        0.13174047069423
H            5.75430273280936       -0.60957262023614        0.09780692359331
C            3.15624957752558        1.47993119672657        0.03911230606364
H            3.52760683370676        2.48755893967262        0.06015762815691
H            3.44097069474682       -1.85465784484798       -0.03041053978465
H            0.57057187947351        2.82029816319034        0.05716013127898
H           -1.60809041152044        2.82285778560071        0.03586550291152
H           -4.73059489556472        0.03021714960951        0.01352171294549
H           -3.58765765940589       -1.99615442754742        0.01535176800583
