31
 energy: -53.831987022971 gnorm: 0.000743482730 xtb: 6.6.1 (8d0f1dd)
N            5.72247840007062        0.22342348483395       -0.06830041722947
C            4.57508285336277        0.28863698748758       -0.00469402716266
C            3.18101928249031        0.31060008065686        0.04414004399414
C            2.36895320982281        1.40570278275937        0.29996747079234
C            1.02600188459133        0.97506326503283        0.20819872382459
C            1.03852996769704       -0.44284339393241       -0.08157274612808
C            2.36146586235329       -0.83954710706947       -0.20621926735380
N            2.85969197910909       -2.11504829615593       -0.48614038201190
H            2.45603322051593       -2.54359112035690       -1.31067460152552
H            3.87104431348927       -2.11544187745544       -0.54810505925950
C           -0.18077177859797       -1.16916116167423       -0.05245661177518
N           -0.13970333723114       -2.55731602954427        0.04881964190949
H            0.78472716235984       -2.94032459904660       -0.07657305868020
H           -0.86221497947198       -3.06212721354504       -0.44164453440319
C           -1.36375880498315       -0.46877349129261       -0.01800284565366
C           -2.63163882749770       -1.12628863869091        0.31569022828280
N           -3.77896897980384       -0.91841151818031       -0.26432236358518
C           -4.06882905317510        0.12493383535889       -1.03655554007268
N           -3.64397908083235        1.34244739393257       -0.94248241478929
C           -2.52803976782344        1.72598226435280       -0.30360724270063
C           -1.39361280455985        0.99624802778590       -0.01008454781358
C           -0.16193101634738        1.68768584423232        0.29276546430540
N           -0.13450665191504        3.02104046412896        0.53159208696142
H           -0.96806102890903        3.53212184868461        0.75466055774348
H            0.75086042116417        3.44565008995457        0.73966753341680
H           -2.50802334996592        2.80267799508754       -0.17468988666660
H           -4.88356389188281       -0.04149350325088       -1.73530120524976
N           -2.59651173130592       -2.05718056262271        1.28108343523321
H           -1.71298595216185       -2.35677988994277        1.65719724019754
H           -3.45007305332936       -2.51696059902411        1.54798983389767
H            2.72415379756692        2.39946751849717        0.50428124340217
