32
 energy: -53.566011315041 gnorm: 0.000616527261 xtb: 6.6.1 (8d0f1dd)
N            6.30480517358984        0.18930162803786        0.40418996963501
C            5.15830252743724        0.18869417698480        0.30428055156317
C            3.76650294791682        0.18149809504907        0.18157277963678
C            2.95091640875510        1.32272685447056        0.09177698063132
C            1.63547750523661        0.88367109829498       -0.03437990891261
C            1.64525927993216       -0.56592394221084       -0.00599820459024
C            2.97042999727681       -0.97754250784993        0.13282294318268
H            3.35284870948178       -1.98246660297884        0.17626698217435
C            0.43801312741472       -1.26711216412978       -0.08111288211663
N            0.48353044483281       -2.66468824584918       -0.02358092372904
H            1.38975407632526       -2.99091405478617        0.28131324772108
H           -0.26520952174132       -3.09651938226107        0.49994993715747
C           -0.77617946446242       -0.57056286599519       -0.20578264211843
C           -1.99501266276475       -1.30782877944938       -0.40261298993313
N           -3.16769245425725       -1.05757587567781        0.13889010483987
C           -3.66427938310639        0.09241678850086        0.55024535480313
N           -4.80695889517362       -0.00608684404072        1.27434263251134
H           -5.08475958508479       -0.91550088997212        1.59674775459002
H           -5.20685825743347        0.80800072530737        1.70236084688641
C           -3.23836781234040        1.35773481313819        0.12132606035778
C           -1.97913763361969        1.68086984268721       -0.35789286183336
N           -1.83246117033579        2.93228008422783       -0.86177173948482
H           -2.63547382771022        3.52803705498074       -0.95236206296821
H           -0.97835631512687        3.20300165347707       -1.31252831105917
C           -0.78012294952029        0.88345507378561       -0.22943971610447
C            0.42802146999627        1.56128581828145       -0.15111987971156
H            0.45012823055233        2.64088923078584       -0.10077244733277
H           -3.96651677983193        2.15765028064498        0.17292410709831
N           -1.95398821285013       -2.44476117721327       -1.12473686292223
H           -1.08658691579522       -2.75925648515807       -1.52476405168332
H           -2.80099695147613       -2.97173186363571       -1.24367501887218
H            3.29418478258286        2.34085331955372        0.10675479298348
