31
 energy: -49.834316713601 gnorm: 0.000400703473 xtb: 6.6.1 (8d0f1dd)
N            6.21590461119915        0.32015785584081        0.28141989102967
C            5.06868738400391        0.25239637787806        0.22812723547980
C            3.67535516842292        0.16892813540493        0.15531491559399
C            2.78265563788435        1.24922884485212        0.36780300836512
C            1.49842651070067        0.76740072189815        0.19122872698074
C            1.58931426532537       -0.64359880547696       -0.13276869409045
C            2.95342727305361       -0.98404517784029       -0.15743531618847
H            3.38850000645508       -1.94718070487319       -0.35763375295177
C            0.43464084606160       -1.38730379653602       -0.33289487759483
N            0.54054513494242       -2.73231278882540       -0.60053656773618
H           -0.17252494145399       -3.16719008748494       -1.16156842511290
H            1.47724500296879       -3.04943644836392       -0.78915238873322
C           -0.84857869102138       -0.77455390747858       -0.14439178129699
C           -1.91516468079377       -1.63440516531550        0.08819331891167
C           -3.24803175184284       -1.40743452619284        0.38253251403611
C           -3.95859176709677       -0.21254907402766        0.29893837212478
N           -5.30271742566994       -0.26417560174737        0.52618996072002
H           -5.82092485904219        0.59081785453504        0.62331353561772
H           -5.69398028112614       -1.08972614372692        0.94417994511906
C           -3.43877757248832        1.02308750591780       -0.11534450525487
C           -2.13083257393892        1.42596768370986       -0.29601040796107
N           -1.96626219435848        2.71498339949363       -0.70155451473515
H           -1.07183104426101        3.01626288313441       -1.04377984088499
H           -2.77354573581638        3.25058333708097       -0.96854608640457
C           -0.90872903442880        0.68619889107165       -0.06277741378079
C            0.24957852702807        1.39843983070604        0.15924512653377
H            0.22213967572945        2.46511576029742        0.33206509929151
H           -4.18501615428243        1.79296205538069       -0.28506687675061
H           -3.82752358373673       -2.27762134311617        0.66550615663481
H           -1.64419887094778       -2.68173408101690        0.13965841916441
H            3.07295598803056        2.25493053712124        0.60998801487377
