29
 energy: -55.195679190683 gnorm: 0.000803945798 xtb: 6.6.1 (8d0f1dd)
N           -2.27672064338958       -3.50887754883251        0.11178925307680
C           -2.13531525661752       -2.37034571152594        0.05877067691240
C           -2.09537271344139       -0.95375212181039       -0.00770827610784
C           -3.36450095477225       -0.31060039573473       -0.01691674822904
N           -4.45384310649195       -1.11993924447459       -0.01862375193867
H           -4.34263784416417       -2.11850729853096        0.01499473941479
H           -5.37768834846772       -0.73026197239593        0.01392734271528
C           -3.59710851703202        1.05934009614092       -0.03515990140626
C           -2.69660146879178        2.12827796686049        0.00324509461813
N           -3.23309811048397        3.37869124384383        0.05851272392189
H           -2.63274459894493        4.18000762117997       -0.01321040710166
H           -4.22058864054960        3.51437566196092       -0.05660432103725
C           -1.30139514545306        2.05621144708909        0.02993368195747
C           -0.42294782274255        0.97882679021789       -0.02891945273070
N            0.86818003119933        1.34929441051098        0.00255672046725
C            1.77652900294624        0.39820748366851        0.03041940478785
C            1.39815817934768       -1.04047268589622       -0.01680124117237
N            2.47335010840967       -1.82352072247898       -0.05864899815917
C            3.52821645012664       -0.99312794505807       -0.02638328319114
N            4.77629542900492       -1.45991813509589       -0.03879713363693
H            5.55707782230367       -0.82651555275097       -0.03547192702418
H            4.92085490894144       -2.45438941684978       -0.06342688727917
C            3.16766235814010        0.40099441471183       -0.00187612456579
C            4.07275935171975        1.45336902407804       -0.00213818328408
N            4.86877309748231        2.28543791799258       -0.00332087145906
N            0.14287736054640       -1.40389509827799       -0.07610742373231
C           -0.79410478260613       -0.43680462323455       -0.06051334801778
H           -0.78238235701441        3.00461853997927        0.11146732582277
H           -4.64411488160532        1.34232972861312       -0.05079772792145
