29
 energy: -50.378911724368 gnorm: 0.000725077421 xtb: 6.6.1 (8d0f1dd)
N           -1.24616291484889       -3.63030671228478        0.05083663694697
C           -1.31212180387509       -2.48320707375410        0.01705236394485
C           -1.51550216959833       -1.08145024844253       -0.00878475056118
C           -2.86352558846884       -0.66481765357012       -0.02945410580275
N           -3.81411518939846       -1.64400175392116       -0.10781701562717
H           -4.77500915874641       -1.40980225389858        0.06579296607981
H           -3.53627719426277       -2.60271236559110        0.01820558937188
C           -3.33093936533697        0.65012716400504       -0.02143435058260
C           -2.62906997102105        1.84947282373047        0.01486377758020
N           -3.37216688947962        3.00064890208047        0.08705804380992
H           -4.35156239967526        2.95943336861086       -0.13470494491669
H           -2.90836391745513        3.87527547735712       -0.08609199196230
C           -1.23805410493387        2.01903196934595        0.03592338355344
C           -0.18777217699030        1.11576569510795        0.01730799052953
N            1.01989881396608        1.71489895290358        0.03426655086586
C            2.08525724757527        0.93870405200530        0.03709525543518
C            1.96218383768933       -0.55350703741328        0.02023423276867
N            0.76890401037608       -1.13881497672711        0.00121831220020
C           -0.30505338424118       -0.35273751571985       -0.00298513520432
C            3.22816669462946       -1.07631624859061        0.01826315309006
C            4.13509256646823        0.02431003948016        0.03892014622778
N            5.47441007618201       -0.10364074268315        0.03289826636009
H            6.06316133553315        0.70731656276065        0.09926549676625
H            5.89526438698296       -1.01433108071790        0.07813059924611
C            3.43479052598797        1.24459101552250        0.04633305737359
H            3.87394572961107        2.22321541374353        0.05835264076008
H            3.50356208411995       -2.11283136273101        0.00384954308024
H           -0.89501708595497        3.04740120535040        0.07105259873698
H           -4.41149436953464        0.74685003114128       -0.03925102027065
