39
 energy: -69.194904616189 gnorm: 0.000619093621 xtb: 6.6.1 (8d0f1dd)
N           -4.21076341505389       -3.46957610659671       -1.15030852098625
C           -3.61479353943784       -2.54815722470357       -0.80068078049512
C           -2.89834193758009       -1.42171512216093       -0.36234293148542
C           -1.55804926186163       -1.67250840487605        0.02624588956059
C           -0.50333714964500       -0.82731503805971        0.24019566898528
C           -0.53912673179995        0.63662742511397        0.08697918970241
C           -1.72264845522948        1.37841891435919        0.41082074083391
N           -1.52909809037069        2.62625999635251        0.90552773594876
H           -2.31990829432271        3.16346459493070        1.22084819608635
H           -0.60415798219137        2.92629787483636        1.15867182029552
C           -3.06704252943319        0.99264136439242        0.26574958036887
C           -4.02859338942165        1.94903537829057        0.62592047891125
N           -4.82445400588426        2.72888309107149        0.92613451844054
C           -3.60188082549579       -0.22046103005681       -0.27009111982027
N           -4.90069125301164       -0.20193928360921       -0.64594397634879
H           -5.34918462598248       -1.05966580578983       -0.92163899706341
H           -5.46581606866857        0.61342652317714       -0.48034046183137
C            0.64093009190657        1.31484854719076       -0.23710508742072
N            0.66338138158730        2.65579216778547       -0.61581276655599
H            1.44749366759583        2.86367707980280       -1.21776262260289
H           -0.20675152798209        3.00428742580521       -0.99292108297234
C            1.87578978843406        0.63828910283932       -0.19355280293607
C            1.92591252868723       -0.76080493695469        0.18662702555103
C            3.28708693617440       -1.16267804037543        0.17597888800789
N            3.77687806823171       -2.42963309734911        0.45868771927710
H            4.77825166354298       -2.49584402533697        0.32438095237557
H            3.28911288360142       -3.18088488261631       -0.01152716250847
C            4.05352886292794       -0.03567469242882       -0.14250427892596
C            5.44204379055414        0.00641629869229       -0.23165848849280
N            6.59102609228700        0.04666586388784       -0.30179238183277
C            3.18686501966514        1.08081698556932       -0.35478061552059
N            3.63721847837162        2.34999830183294       -0.69161242252362
H            4.64559233600608        2.42536467807665       -0.65367807690890
H            3.18557397204397        3.10752424462436       -0.19824401667809
C            0.77394846529268       -1.45220012472687        0.49963643185752
N            0.84553900020628       -2.73361339044510        0.96718132344620
H            0.04631738461956       -3.10580917618758        1.45276902349221
H            1.74275091470628       -3.00912933904711        1.33423354898884
H           -1.33493717416225       -2.73263781740947        0.05120723108064
