32
 energy: -54.356427087605 gnorm: 0.000628187403 xtb: 6.6.1 (8d0f1dd)
N           -3.17621000420240       -3.77889159149672        0.26534715915972
C           -2.62119680578120       -2.77426170520668        0.17823379169732
C           -1.95572203749130       -1.53870256802947        0.06706829498719
C           -0.57427819051103       -1.62070284341549       -0.14611658796856
C            0.42226516198855       -0.66205939413289       -0.15588257424515
C            1.74368473088679       -1.17905057184081       -0.23147166860640
C            2.83734228978462       -0.38514657889221       -0.07043126574053
C            2.65494247925150        1.04127956282489        0.19737143985239
C            3.91860849549648        1.58824555119723        0.40450241536809
C            4.87219601966636        0.57199847723794        0.25372003037577
C            4.24111829572111       -0.63329995980383       -0.03766530870661
N            4.84129819535490       -1.86277269408946       -0.18613190076757
H            5.82642913982027       -1.84643871261667       -0.39728544149433
H            4.31758471743844       -2.55518273955406       -0.69695294273710
H            5.93589700026287        0.70201791963525        0.34944402667373
H            4.13607651625465        2.61659323608047        0.62876097770967
C            1.38075737200580        1.57343299312342        0.16965727642722
C            0.24624223670997        0.78686832953589       -0.05213613197618
C           -1.00227133149182        1.45413801247044       -0.23634226684408
N           -0.95356365930920        2.76118916443455       -0.57812046718052
H           -0.07912211411460        3.20668395225098       -0.78384587635107
H           -1.80364756978969        3.29136105276739       -0.67347902235049
C           -2.31593773113729        0.94080556152042       -0.07322517461143
C           -3.35096272862343        1.88895819533165       -0.15545157606114
N           -4.20805107605869        2.65758654046119       -0.22395785732240
C           -2.75888466704536       -0.38333648457118        0.16575763771089
N           -4.06860344395449       -0.56092652579724        0.44152539529333
H           -4.70125593603846        0.22126175094528        0.44766116470199
H           -4.43736667903091       -1.49297177347941        0.53231743287347
H            1.28176367631799        2.62995503072725        0.38051431058853
H            1.85666819236058       -2.24688279637680       -0.36875627316241
H           -0.22516519204109       -2.64319068153938       -0.24921789688926
