30
 energy: -50.906198104214 gnorm: 0.000698144531 xtb: 6.6.1 (8d0f1dd)
N           -2.03163391876096       -3.65017266829812       -0.42675548538231
C           -1.82352553574017       -2.53196767071997       -0.24881110781881
C           -1.66420190822123       -1.14029729569995       -0.07288147188474
C           -2.87666886642371       -0.44586048133800       -0.01131101818418
C           -3.05318382919114        0.94895636601490        0.12297889047927
C           -2.12076579179236        1.95694343684550        0.09729423827611
N           -2.56076752792663        3.24735354558680        0.16992556560822
H           -3.51425582154155        3.43186541773427        0.42616683791908
H           -1.89702139419651        3.98988915535405        0.29991711611363
C           -0.71403419961945        1.81147091590787       -0.06449539706950
C            0.10347511482346        0.71446945587458       -0.08484823358664
C           -0.29645417865222       -0.69090755382324        0.01315853226691
C            0.67614130064701       -1.66413834921677        0.14022363217095
C            2.04175039664085       -1.36884268652317        0.13298982702183
C            2.46666427209157        0.02602320811848       -0.06228073897340
C            3.88669962305976        0.04031398193454       -0.06596693866010
C            4.30429894779092       -1.25137657350951        0.12114019927965
C            3.18142973077956       -2.12545862450413        0.24602988131636
H            3.23567246135537       -3.18670271446622        0.39820968516063
H            5.32907790023087       -1.57644025312171        0.16815393374931
H            4.49886955148552        0.91309379194490       -0.19073694647224
C            1.51960772170652        1.01056686722661       -0.17839826857925
C            1.95288678337415        2.34093664904043       -0.34940890864561
N            2.33270040627898        3.41594847761614       -0.49471731653093
H            0.37972638434689       -2.69844655878775        0.24024400685254
H           -0.20304768952986        2.76523380406328       -0.15029065273350
H           -4.08532497544018        1.26454722090859        0.22675982654070
N           -4.03672851135379       -1.17085598527145       -0.01470274586618
H           -4.90849022340936       -0.69767652017238       -0.17080592785604
H           -4.00149355231218       -2.15409905241870       -0.22483830651167
