28
 energy: -46.675701380841 gnorm: 0.000640615578 xtb: 6.6.1 (8d0f1dd)
N           -6.12112913695120       -0.28355142805627       -0.00550702413185
C           -4.97160145953265       -0.26740195186468       -0.00492372882202
C           -3.57275861084251       -0.23630723616620       -0.00232942871542
C           -2.73162331662755       -1.35852339403162       -0.03027895597256
C           -1.41531134817146       -0.89458798942264       -0.02117133555098
C           -1.45731243639984        0.56036923452482        0.01873918868988
C           -2.79741916442949        0.94013954616999        0.03526641317370
H           -3.20618688780812        1.93463113640236        0.05595922988424
C           -0.27121625924506        1.30384063519880        0.04492530263135
N           -0.36807830673371        2.67106656687318        0.08820437793962
H           -1.29118064122035        3.02958895854532        0.26609549319171
H            0.38135109190577        3.21043301313687        0.48416812468419
C            0.98207450413896        0.63809183970330       -0.02569995597111
C            2.13129136718136        1.40779100041135       -0.20123802061407
C            3.47127436890105        1.07127615259847       -0.21905140425003
C            4.04703714623874       -0.18989389977031       -0.00049155472047
N            3.45157139572135       -1.38667001233444        0.08092584912744
C            2.16751314397314       -1.62565756001527        0.02912883911365
C            1.00455803234011       -0.83865926949181        0.00568988771813
C           -0.19569432648868       -1.54705225541802       -0.00832512481027
H           -0.17031918765853       -2.62783764373024       -0.00177488073857
H            1.97506761613737       -2.69803315070599        0.02994789493555
N            5.38802611789312       -0.27217728726399        0.11372925355472
H            5.79320309460072       -1.18251306510549        0.24603830166013
H            5.97818944671244        0.53566837085643        0.03382613687924
H            4.17241842679104        1.88229725204881       -0.37098157872449
H            1.95816539638476        2.46452720247213       -0.36468083057549
H           -3.05197126671082       -2.38297523796477       -0.05532112268620
