32
 energy: -53.548025523866 gnorm: 0.000831227339 xtb: 6.6.1 (8d0f1dd)
N            5.04162895604325        2.13963006817944       -0.19776968571063
C            4.11787279836732        1.44986768503370       -0.14833239486030
C            3.02540138743080        0.57686370366242       -0.09590255282176
C            3.33365703423428       -0.83367969050023       -0.00193171543141
N            2.52575742781889       -1.85261888858598       -0.12613310114333
C            1.18884652340239       -1.85068907356782       -0.19996814519515
C            0.21901190500964       -0.89213208381115       -0.01556178004494
C            0.48416383990256        0.56299111221292        0.00575802418662
C            1.75495883640670        1.13432137529910       -0.06279630414450
H            1.75788137570768        2.22039863225148       -0.08423047093656
C           -0.59167305376205        1.45583624189904        0.02542176994601
C           -1.89477967944717        1.01594565337502        0.00302545689054
C           -2.17686550023201       -0.41400726695477       -0.01876917881067
C           -3.58821596666427       -0.55230980701967       -0.04239112585590
N           -4.29143401770045       -1.75611250005270       -0.08371686897034
H           -3.93028787065588       -2.41164597241257       -0.76499241495073
H           -5.28479493753309       -1.61192557045111       -0.21223906105526
C           -4.15119406275409        0.72051000166171        0.00460839188376
C           -3.13500798012340        1.68594212028308        0.04222288159671
N           -3.32255256881847        3.04950984539606        0.02151237300230
H           -2.54093734517963        3.60337619174556        0.33305909422435
H           -4.21818757510275        3.37308948986406        0.35099333250079
H           -5.20614939060340        0.93298204186680        0.00746209135503
C           -1.15227185249630       -1.33523533203223        0.05831645712493
N           -1.45805387939591       -2.66740462095464        0.19750767762965
H           -0.75087100747068       -3.26766015246751        0.58785475551266
H           -2.39124272607480       -2.84420314590636        0.53640489491166
H           -0.37830679304169        2.51648391092181        0.04549984456780
H            0.84470003711567       -2.85812147141800       -0.42046029763163
N            4.62357326133221       -1.15676052527184        0.21513640129861
H            4.87078443280080       -2.13049618007625        0.24714716175616
H            5.33626640988609       -0.44755726077515        0.24245134897943
