28
 energy: -51.468317730955 gnorm: 0.000923400921 xtb: 6.6.1 (8d0f1dd)
N           -1.31315950410372       -3.59667058479792        0.71322776909324
C           -1.40232363099330       -2.49071915865629        0.42069179686513
C           -1.67427140484828       -1.11595138127433        0.19009250010704
C           -3.04491724866105       -0.82308541883201        0.43109069763317
C           -3.71623233411481        0.33577086733733        0.21126710956098
C           -3.12756088809923        1.56137555416488       -0.23879212570507
N           -1.88000488405806        1.91055650280815       -0.13101148325365
C           -0.75737917584363        1.22215690253715        0.07011629215650
C            0.36485110262844        1.98304241637796        0.35485640653714
C            1.63773405393640        1.42402986398499        0.31179904805038
C            1.79548213028297        0.02194537293304       -0.13911448878789
N            3.07975558870177       -0.30589620886955       -0.25387934534358
C            3.76621348387849        0.79847056625305        0.11362521594694
N            5.10271934127698        0.78552880197771        0.11661717997086
H            5.63151371806254        1.59829554596203        0.37557811356069
H            5.57095633337073       -0.06017336426497       -0.15870818255925
C            2.92364234515260        1.89304225976238        0.46318551083372
H            3.25053420112549        2.86573838108004        0.77142609600246
C            0.67489860021482       -0.77432915076630       -0.34919895305653
C            0.86523993192383       -2.07499140946400       -0.85962363528842
N            1.06461855204617       -3.08259104098591       -1.37190898944218
C           -0.61622259961090       -0.25051069024677       -0.08380873666593
H            0.23234379117397        3.04032348162747        0.52683715865856
N           -3.96123173719213        2.50829032206749       -0.73755585862925
H           -4.95702271492556        2.39582262362741       -0.69312006634454
H           -3.57674881259728        3.41266043109414       -0.94735056435208
H           -4.78280547101400        0.35211977013233        0.39207758685771
H           -3.62487113471019       -1.66968155645931        0.77939432302845
