31
 energy: -53.862018495770 gnorm: 0.000662836258 xtb: 6.6.1 (8d0f1dd)
N            6.10651701423400        0.47215207881678       -0.50413851520525
C            4.96490077751441        0.44713405544750       -0.35495869334318
C            3.58166855778551        0.37644668907213       -0.19520278392188
C            2.69407722710893        1.47435741645448       -0.13554592311131
C            1.41058233039855        0.96987314228308        0.00829524305727
C            1.49999938664404       -0.49199726390161        0.03552210156514
C            2.85705047492874       -0.83046544733562       -0.10060951619736
N            3.40803447164785       -2.10314944329896       -0.04840957129963
H            4.36209326540282       -2.14737710881652       -0.37773303299459
H            2.82545557978019       -2.83303874746696       -0.43125675399892
C            0.35059141072403       -1.24362140652398        0.16885351781942
C           -0.90521709574392       -0.64121230490131        0.23799391710033
C           -2.06441353546938       -1.46959274973139        0.40368592295747
N           -3.26943276489933       -1.25864621771477       -0.09578913191319
C           -3.72906882924371       -0.10244051481475       -0.54634560613677
N           -3.42511861363386        1.11282030995766       -0.10889992635688
C           -2.25887947188806        1.48539518770755        0.37815450677153
N           -2.27210201883563        2.67756896416794        1.00421690322140
H           -3.13461409852719        3.19211952959691        1.03522978824108
H           -1.42528010215915        3.08766613402251        1.35272012147229
C           -0.99650422071581        0.80996486720668        0.21551089127094
C            0.16328599925563        1.56747935045484        0.12092060927652
H            0.10125342385050        2.64703381943135        0.06892396463979
N           -4.75408413282063       -0.17276299625069       -1.41884613167732
H           -5.14168889315118       -1.07160817712469       -1.64016201069650
H           -5.25582016823477        0.66604005993564       -1.64641152324782
N           -1.92786484050038       -2.66285448672917        1.01811911744573
H           -1.06656539218199       -2.92476923850088        1.46072343192778
H           -2.73548908748720       -3.25587628877423        1.08927421105155
H            0.42074093062094       -2.32414669291395        0.15645628082848
H            2.98436898049606        2.50703821074484       -0.19012038544557
