25
 energy: -48.288689217417 gnorm: 0.000455235919 xtb: 6.6.1 (8d0f1dd)
N           -0.63195466636655       -4.17953644775775       -0.60812752899304
C           -0.11651307608124       -3.18614950477490       -0.35687259298549
C            0.57751826218252       -1.99343423709177       -0.04182185131035
C            1.95466688985603       -2.13218869761423        0.11946096582637
C            2.93019788141473       -1.17606913537854        0.26611121809129
C            2.81931751645062        0.22062867475061        0.11024776341363
N            3.97447231563495        0.92271803721252        0.10351806235711
H            3.96587860846088        1.91834069737320       -0.04138540431824
H            4.85698635106180        0.44940497522040        0.17584394818339
C            1.62094282143708        0.94164067845364       -0.06675890831404
C            1.76978805900441        2.30647989947809       -0.40215252776405
N            1.94748391227421        3.41039286946110       -0.66681764469033
C            0.26499004346557        0.53706592883435        0.07100800204217
N           -0.61844842348008        1.51963903247900        0.05528918618334
C           -1.89904515835803        1.33122099026862       -0.06189906316758
C           -2.41041000652713       -0.08758105609874       -0.03002367919631
N           -3.71508147926922       -0.06789125065412        0.10293353693623
C           -4.10047175670512        1.22061423459191        0.11811717576040
C           -3.03738023574481        2.11653288339041        0.10999747108316
H           -3.07565290926329        3.18679669044885        0.13863088324256
H           -5.14867610592068        1.45351781596124        0.16705910062535
N           -1.54136542094252       -1.04330730012973        0.10027538577222
C           -0.23686701031491       -0.83699294563520        0.09022882088300
H            3.93862375924087       -1.53931242178912        0.41700972529573
H            2.30010842829043       -3.15972518689854        0.11381806964376
