30
 energy: -50.111212073145 gnorm: 0.000632664848 xtb: 6.6.1 (8d0f1dd)
N           -4.82068303167439       -2.26632440767507       -0.01042893513240
C           -3.98461366115000       -1.47260825337876       -0.00502471916858
C           -2.98097406876008       -0.49095942466571        0.00075491069305
C           -3.40508391197082        0.84093995693739        0.00375424211206
C           -2.55495171426262        1.98361490721326        0.00673057757518
C           -1.19412189798730        2.05479493475305        0.00600806362324
C           -0.17383648254174        1.07523121102702        0.00477237171120
C            1.13197461762532        1.54710323724916        0.00414002348274
C            2.21773613232864        0.68252011557004        0.00513334103980
C            1.97017975028740       -0.75793697958343        0.00716742735423
C            3.28925890451378       -1.33898652285242        0.01000964051376
N            3.58107363430182       -2.66700235555243       -0.05599573371319
H            4.53858397780476       -2.90836053019105        0.14146074662215
H            2.88030941373801       -3.31140991438296        0.26881493660835
N            4.22719589023055       -0.40769335546821        0.00558772883413
C            3.60635991943209        0.81024208571505        0.00091938693524
N            4.35869658093076        1.95283905727801        0.06414710122601
H            5.32831012058382        1.82160485281577       -0.17710140021167
H            3.93208824187044        2.78975036487072       -0.29864580779543
C            0.70902957042759       -1.24865935297813        0.00872655182641
C           -0.42359148885376       -0.37671034885016        0.00591930907343
C           -1.64782410486292       -0.99294978201839        0.00378705073083
H           -1.61998612647939       -2.07842004470380        0.00307138952348
H            0.52681579289269       -2.31584573500196        0.00790763534530
H            1.30209068039365        2.61604511025032        0.00662720099680
H           -0.80713781681200        3.06910030156311        0.00759322094610
H           -3.08671880839912        2.92792801249626        0.00895895835489
N           -4.73245405895817        1.08919264996375        0.00347654938613
H           -5.39002264009018        0.32718341105295        0.00077818244252
H           -5.07713067175894        2.03236205474682        0.00564796646406
