36
 energy: -61.227882260811 gnorm: 0.000610260770 xtb: 6.6.1 (8d0f1dd)
N           -3.91997571210540       -3.53871466568257       -0.67080985613898
C           -3.24987685077077       -2.62548498310506       -0.45980960033651
C           -2.44903046335269       -1.50071143718118       -0.20246242040903
C           -1.09116301478356       -1.76781206796770        0.05824077986943
C            0.01325767357917       -0.94859621590636        0.14270070969081
C            1.24975973572556       -1.63130943582449        0.27626673872138
C            2.43903206948390       -0.98009683865477        0.17674728826293
C            2.46635831527722        0.44617952195270       -0.11106741522192
C            3.81360064984627        0.81153674403430       -0.23516676202074
N            4.32317981495960        2.07740985627807       -0.51094167701741
H            3.87318906311764        2.82779828885170       -0.00428373512860
H            5.32870606327198        2.11720978473713       -0.41133576421302
C            4.60688871129584       -0.34260149204991       -0.05079035337105
C            3.79491570058305       -1.43490684409938        0.19450754897390
N            4.19728783325241       -2.71455885562610        0.50096165788796
H            3.51052830735355       -3.43637262559695        0.35114872983781
H            5.12862384954711       -2.96194828816556        0.20560608499471
H            5.68198334826811       -0.35690367029133       -0.09310109966140
C            1.26862636510524        1.15356857115959       -0.22368629264466
N            1.34997372880037        2.48771758904158       -0.61954439447457
H            2.18724286310918        2.67045853065878       -1.15457046611702
H            0.52121064636897        2.84734634869651       -1.07186319911036
C            0.02860353914253        0.51951826892220        0.04037227918239
C           -1.11540946016720        1.30938055231438        0.32742753346198
N           -0.89866357431836        2.58733175824660        0.73943055615601
H           -1.68111379357693        3.13803566415759        1.05251784712436
H            0.02626244806217        2.86681022852345        1.01661169595959
C           -2.49058069469390        0.96805034231782        0.21437564766359
C           -3.39869438364985        2.00277316480680        0.48157672869136
N           -4.15553292981050        2.84639165373177        0.70490129454909
C           -3.09882741545341       -0.25625739703596       -0.16991252462819
N           -4.42038477357819       -0.22851124342829       -0.45502428794568
H           -4.91000695930818       -1.09307862402304       -0.61559825695139
H           -4.94919583998739        0.61827940789486       -0.33109707648025
H            1.22117891502371       -2.70386569406730        0.41416255790240
H           -0.88096904341389       -2.82955860652677        0.13389245094179
