34
 energy: -56.998167979220 gnorm: 0.000739772594 xtb: 6.6.1 (8d0f1dd)
N            6.08349382898942        0.68430760534164       -0.40056805957316
C            4.93509028172783        0.65880153619925       -0.30935297556902
C            3.55086978202937        0.56846142552095       -0.17897375603308
C            2.63697246594628        1.64244381443092       -0.13797154847616
C            1.36894831618716        1.10388538389629        0.02877649880307
C            1.48753333425197       -0.34073699791652        0.06705081996270
C            2.85073349419031       -0.65071421387956       -0.05748609098083
N            3.42272735819829       -1.94138492315259       -0.08508884375819
H            4.42045387738546       -1.87940216051661       -0.26058283306306
H            3.26997452218132       -2.45091436410096        0.78008981993511
C            0.35169422119315       -1.15225747365316        0.11489648515786
N            0.55791320866770       -2.52125766914300       -0.00113127546633
H           -0.17487847064288       -3.03298283559706       -0.47094157418824
H            1.48037598576816       -2.72218751067419       -0.36881126243126
C           -0.93688958702776       -0.57288915523576        0.22214724293316
C           -2.08460853367901       -1.40986718076398        0.38720385967949
N           -1.89612272499762       -2.66852551233152        0.89563823524040
H           -2.71903662836395       -3.18013603166923        1.16718004374335
H           -1.05911168287444       -2.84006519470585        1.42771129460562
C           -3.38169301545820       -1.14729673864610       -0.05450883298227
C           -3.88641579379840        0.06256530865692       -0.53081241875919
N           -3.44761854705289        1.26648730238292       -0.19410153837546
C           -2.29101219791566        1.57967356343068        0.34095916634434
N           -2.29231743160656        2.76175900670964        0.98933090022045
H           -1.44590465801690        3.14569873552364        1.36774883002241
H           -3.13738553382306        3.30544112434633        0.98860244775402
C           -1.03308922701972        0.88493161666789        0.20969319997231
C            0.10184117261742        1.67037721403984        0.11580329779967
H            0.01346324345826        2.74554136550407        0.03451890119034
N           -5.06041508937005        0.06691604479692       -1.21656844665609
H           -5.40113030452676       -0.78237395438066       -1.62848491016030
H           -5.36401681236590        0.94290754114978       -1.60373458169421
H           -4.06273479445049       -1.98957302454805       -0.06286862862838
H            2.89567666539844        2.68242791351678       -0.21233046536901
