35
 energy: -56.688770316444 gnorm: 0.000966704209 xtb: 6.6.1 (8d0f1dd)
N            4.90053312295150        1.99527276728434       -1.54237824482769
C            4.12589857919367        1.27750422189408       -1.08570888329746
C            3.17469356756718        0.40755202529132       -0.52126626523178
C            3.55320837692680       -0.90120066280484       -0.31916835106262
C            2.80949822402021       -1.91418634124127        0.28187281419363
C            1.45125516060330       -1.95832149008593        0.55541570956541
N            1.00971067121733       -3.01747703308022        1.26962813583103
H            0.01495842489929       -3.17146070102668        1.34209778160061
H            1.64821966168250       -3.75153684529444        1.52210577644681
C            0.43470767148093       -0.99174330929406        0.16964692228846
C           -0.86706502832539       -1.38881862772743       -0.07181055342242
N           -1.23674797940371       -2.74930700661906       -0.12849616384408
H           -0.68966296951574       -3.30001630319074       -0.77711833285211
H           -2.22940315586937       -2.84774847713337       -0.29465599049288
C           -1.89142765675344       -0.41885601277690       -0.17778599277217
C           -1.61703331430044        0.94997885552968        0.21262805184633
C           -2.86704666366711        1.65244133337483        0.19512601197493
N           -3.02783556382454        3.00698270663860        0.51214780684864
H           -2.39248649013884        3.60866463307929        0.00071603258374
H           -3.98408281510918        3.30895622350781        0.37224140238394
C           -3.84215769904976        0.76166430632956       -0.18429324569459
C           -3.25544565535409       -0.51000876834826       -0.42442767090114
N           -3.97169336430005       -1.64941032259816       -0.83108713840570
H           -4.95598740592625       -1.44095962316555       -0.94232626286066
H           -3.61230382650592       -2.06452645124296       -1.68396952049473
H           -4.89077334620538        0.98100201130819       -0.29611027157540
C           -0.34197435691698        1.35555018139664        0.50629688025086
N           -0.08014175689373        2.62584830648695        0.94943313956040
H           -0.87610750800492        3.10698561391422        1.33876386085731
H            0.79092192084790        2.77438371588108        1.43259031532152
C            0.75236795867761        0.44280683942574        0.21032799376716
C            1.94759112186573        1.01452145415507       -0.11298995613800
H            1.97922425179998        2.09769247128710       -0.14155093418288
H            3.36458523305922       -2.80579217244030        0.55123017229212
H            4.57058536186978       -1.15541349711648       -0.59423370185653
