27
 energy: -47.744773371038 gnorm: 0.000514034429 xtb: 6.6.1 (8d0f1dd)
N           -1.71416138671707       -4.08698816791395       -0.00055752786409
C           -1.64223974697694       -2.94190770782604       -0.00113316599333
C           -1.65960616333628       -1.52113266480242       -0.00213015909111
C           -2.95630202382627       -1.02963244637861       -0.00146240796854
C           -3.41718273498533        0.27785254510073       -0.00364994396871
C           -2.66662534462879        1.44825596737274       -0.00713337143749
N           -3.32980854474709        2.63307285373950       -0.02199231411829
H           -4.33227109397672        2.65705492381176        0.01371149505795
H           -2.82740634757026        3.50137470190313        0.01410113216600
C           -1.25399551421811        1.53386633997819       -0.00598637767272
C           -0.24182708662624        0.59936036803218       -0.00325313357668
C            1.08817010281118        1.14477873738836       -0.00105207245092
C            1.28906931763768        2.54171999914632        0.00119764010827
N            1.43918066882474        3.67997975789124        0.00323027247507
C            2.19370391396522        0.32144042625366       -0.00079011647392
C            2.01928222567765       -1.14315047710896       -0.00251029517606
C            3.30720565772600       -1.64623359991614       -0.00259202372211
C            4.14992734619803       -0.51418979361536       -0.00096681951472
N            3.50028232096623        0.64614097915071        0.00039265734380
H            5.22630902459913       -0.51976475179448       -0.00064962227406
H            3.61618197904807       -2.67249243708045       -0.00366241267580
C            0.73618986048976       -1.67442351031013       -0.00318530679592
C           -0.39151010327579       -0.86499735309183       -0.00300498917009
H            0.61546256676888       -2.74854928395015       -0.00350831846323
H           -0.90261007920672        2.56147591057067       -0.00766034257457
H           -4.49271365673462        0.40238243954176       -0.00338346258947
H           -3.72862422958630       -1.79024870519242        0.00099308842081
