28
 energy: -57.044787629340 gnorm: 0.000947699749 xtb: 6.6.1 (8d0f1dd)
N           -2.48778999045360       -4.12178409547803       -0.11226443100039
C           -2.30230999929121       -2.99564066919084       -0.01745064744073
C           -2.18753377908816       -1.58362080602112        0.11135666077877
C           -3.38889275026404       -0.92899514986380        0.43995282752295
C           -3.65062830358426        0.40839915665464        0.48928838583847
C           -2.81156944502628        1.49282215428451        0.12922231398543
N           -3.40905056298705        2.70052126967906        0.03885226145806
H           -4.40212131230205        2.78734510000354        0.16371571965680
H           -2.88568424800445        3.51817800335706       -0.22718156975595
C           -1.42590335906178        1.41342825176239       -0.12158743864508
C           -0.88565922248198        2.60535380022595       -0.67042851503008
N           -0.58171060373483        3.55995579970113       -1.23179473256120
C           -0.51187014690137        0.33455730530263        0.03352205179323
C           -0.88766386980247       -1.08071606374547       -0.02052259596651
N            0.01807733035087       -2.05909197993490       -0.18398836153514
C            1.28328472631552       -1.76937961026657       -0.23508193648472
C            1.79808041071300       -0.39077766951363       -0.04633237233803
C            3.17896892820457       -0.53606148908135       -0.00097843499659
C            4.16544366075447        0.43490151772976        0.18411327797925
N            4.99777204103202        1.21121441210149        0.33419207893799
C            3.40596007707991       -1.93095314493817       -0.23511316219214
N            2.30298543481656       -2.64051857859081       -0.35106249889977
H            4.37047543895436       -2.40024309444434       -0.31724308071499
C            0.86351716439844        0.63519830853567        0.10505291103516
C            1.32797101312437        1.92559093269520        0.45357487419119
N            1.74791784519165        2.91800739784279        0.84558333509455
H           -4.66045799981325        0.69211389528238        0.75951324597679
H           -4.21573772573354       -1.59227233818832        0.66344811291228
