33
 energy: -53.260843161801 gnorm: 0.000796029054 xtb: 6.6.1 (8d0f1dd)
N           -5.65169906500075       -0.74104708985015       -0.37353682464552
C           -4.50916942108098       -0.62291388292589       -0.28826925371042
C           -3.13237919379417       -0.42963938946412       -0.19359970768513
C           -2.13064472788323       -1.43209481389730       -0.36801891138435
C           -0.89857526876799       -0.83570505817699       -0.22494814594710
C           -1.11040544073608        0.56747358967212        0.06866128293746
C           -2.51737623579338        0.79378155806134        0.06554928706293
N           -3.15005113968896        2.01706219015464        0.30297043778269
H           -4.15809348086731        1.92987050553753        0.24021839766168
H           -2.82297529869495        2.76349259651939       -0.29903363760574
C           -0.05021590837564        1.41287168277929        0.30997638518396
N           -0.26609597243054        2.71771636963932        0.66665065696538
H            0.47787733142882        3.19497802079614        1.14949682169149
H           -1.19466024512057        2.90803984282181        1.01230384137513
C            1.28761813303701        0.92557936739648        0.05140847106179
C            2.22190478449026        1.86730754652209       -0.30903595775962
C            3.55312585803153        1.71896223422316       -0.74147793053098
C            4.35917465659659        0.62893656436565       -0.57082052906155
C            4.03757503455965       -0.57658680760381        0.06517544230418
C            2.79344352095998       -1.07340984468561        0.39306267873393
N            2.75363274032716       -2.19401622224767        1.15268201119651
H            1.87646079282125       -2.66888857384514        1.29035740942856
H            3.60877719403266       -2.65478861285152        1.40939030215943
C            1.48987090493576       -0.52642861726611        0.02756333574178
C            0.41758784752158       -1.36712337999693       -0.18168735821233
N            0.56236852497178       -2.76444757413213       -0.28644257906414
H            1.35559814667872       -3.04971175403133       -0.84546884991839
H           -0.28713872554645       -3.19722709102535       -0.62035476023882
H            4.87747896698363       -1.20880380486060        0.33042753573904
H            5.39017614188020        0.72785369660119       -0.88801950504191
H            3.99692061999348        2.59596523010040       -1.19399497002817
H            1.86251435542922        2.88804461472355       -0.35904326540095
H           -2.35527996959818       -2.46447075535211       -0.56892270339110
