31
 energy: -54.617884543837 gnorm: 0.000757070278 xtb: 6.6.1 (8d0f1dd)
N           -4.53341529456304       -2.75027482310938        0.93642509296315
C           -3.74214684142885       -1.96679173237669        0.65125041001817
C           -2.75919393705346       -1.01724569786044        0.30595027389928
C           -3.22932088712658        0.26173342654567       -0.06595421619978
C           -2.47235680082347        1.37073855328785       -0.33352084951400
C           -3.14730932397657        2.54471109072646       -0.72715434033657
N           -3.67602623508912        3.51277323533936       -1.04888308348240
C           -1.05590722757704        1.52882549549936       -0.12600479189623
C           -0.06871937637803        0.61884470812966        0.06901654260995
C           -0.23638988298704       -0.86489324708705       -0.02278238197580
C           -1.45016087091161       -1.49323018324500        0.23828623492141
H           -1.38371385982323       -2.56105530051259        0.42341520004667
C            0.89454429325805       -1.67571286616853       -0.26615611556443
N            0.80272395933702       -3.02017730931646       -0.45686497949218
H           -0.06206718607279       -3.44519288862648       -0.73883986308216
H            1.64909027198202       -3.50375752803039       -0.69828664324128
C            2.17203234162553       -1.08779805855707       -0.26457036791182
C            2.33634420072559        0.31946673075773        0.04179435706316
C            3.75168780313765        0.51812639741516        0.02047262787524
N            4.39201129682066       -0.61595675330309       -0.23085630440929
C            3.46143847170448       -1.58242403812111       -0.39518901214958
H            3.78448355624666       -2.58628312675703       -0.60312122115245
N            4.42362418706115        1.70050347585883        0.25286418289118
H            5.41977007903207        1.58494904404994        0.11753160679005
H            4.06122125357011        2.50308380149842       -0.24391407523006
C            1.26526582269310        1.13898568399200        0.30896028113577
N            1.45895998419728        2.42434013576554        0.71457023256579
H            2.38543837581766        2.64013026649408        1.04748426740050
H            0.70523576578385        2.90940134657703        1.17189428981502
H           -0.75956417149004        2.57201364735212       -0.15094078628403
H           -4.30584539959120        0.36505346058287       -0.14755913327259
