28
 energy: -46.676178244260 gnorm: 0.000544370545 xtb: 6.6.1 (8d0f1dd)
N            5.67588908020026        0.62590794831452        0.37233837487125
C            4.53288422604173        0.52434430374763        0.28115090106443
C            3.15130365229382        0.36326760584690        0.17749978066303
C            2.17247916621066        1.38985998156949        0.37844333157083
C            0.92806767538651        0.83524436279094        0.20581636286874
C            1.10078275922821       -0.58246576716973       -0.11024380987103
C            2.51267893925717       -0.83939790126681       -0.11676077843192
N            3.10943211997682       -2.02934440739674       -0.44419402051699
H            2.56736124866684       -2.86561502443086       -0.29869181525289
H            4.08911221862104       -2.10760249716341       -0.21881910143708
C            0.02180127191075       -1.38611324240295       -0.30762221127438
C           -1.30329435480261       -0.88792066975287       -0.15877717702709
C           -2.32426872114559       -1.83013734112615       -0.15569624571418
C           -3.65596798575149       -1.69943193466074        0.25526709609387
C           -4.28561651510298       -0.52152728331847        0.58675669244597
N           -3.93167341247815        0.70586349216601        0.23854056536143
C           -2.78065387014794        1.14591366932614       -0.18132357271368
N           -2.81343322091500        2.33059320094139       -0.81729730598924
H           -1.97173513518815        2.76207989331426       -1.15375195063028
H           -3.70440207087756        2.77040674551848       -0.97265194445076
C           -1.46277338361120        0.54736613583112        0.02087460468266
C           -0.37272973800696        1.36057964538136        0.20593739046760
H           -0.50366794528946        2.42175638812033        0.37121539072877
H           -5.24993564781509       -0.56298726595371        1.08201982468020
H           -4.21637475826598       -2.61501092678792        0.38582796399661
H           -2.01150377463346       -2.84588864157691       -0.37133649294767
H            0.14501321651543       -2.44254336841087       -0.51012510559877
H            2.40487083882286        2.40960953614979        0.62276230516047
