28
 energy: -51.457217797045 gnorm: 0.000808283217 xtb: 6.6.1 (8d0f1dd)
N            0.40619797196300        4.35616390088229       -0.20216213177128
C            0.73106197993179        3.25943854524488       -0.12019794484371
C            1.22165482696579        1.93258156820815       -0.01251481593398
C            2.61168366737501        1.82854572067567        0.03775449760235
C            3.41202934539662        0.71148877732374        0.08485467765113
C            3.05121689356460       -0.64497407875069        0.04000618257940
N            4.06653790132944       -1.54591152095732        0.03565215798142
H            3.87146789180291       -2.53138459210386        0.00265337958990
H            5.02031003150457       -1.23594459607000        0.06294483806688
C            1.73322101557715       -1.15004815067119       -0.01219675201963
C            1.62754382352982       -2.56117504211974       -0.11747191398544
N            1.64107842183695       -3.70718645303438       -0.19450541847546
C            0.47439583882106       -0.51412858342670        0.03810850818828
N           -0.53580951568392       -1.38388732847325        0.00016609353148
C           -1.77234086442167       -0.91445595604680       -0.03396834451334
C           -2.02721735470113        0.56120804396278       -0.01959968939833
N           -1.01856185776142        1.41812798965145        0.01375369542313
C            0.22049306621193        0.93702510629781        0.04032465639320
C           -3.38706185186314        0.74915791033777        0.01940127411045
C           -3.98577157625291       -0.53969048007078        0.00507485744651
N           -5.30681039154722       -0.76604138804035        0.03033764288690
H           -5.66163064344340       -1.70595333196951        0.02562600696918
H           -5.95372053500487        0.00241306405276        0.04893646700929
C           -2.99123058851118       -1.55010016897737       -0.00862784003711
H           -3.16800484825191       -2.60750212215339        0.00260146792176
H           -3.90971154608706        1.68441231464846        0.05957825079183
H            4.47882707031607        0.89512225782367        0.13036971288194
H            3.13288908530289        2.77905680745605        0.03234166435307
