28
 energy: -52.247923166749 gnorm: 0.000585813891 xtb: 6.6.1 (8d0f1dd)
N           -0.22410296216338       -4.51717796193535       -0.21130153945199
C            0.17853026148212       -3.45038757555314       -0.09475992883815
C            0.77228213848373       -2.16985602517046        0.06022765632557
C            2.13215930456692       -2.19693595988322        0.47412674468581
C            3.02254929341285       -1.17867678614183        0.51015882876684
C            2.84772261300761        0.17655803591570        0.08399663339138
N            3.99165253369413        0.89024013049827       -0.06019215169659
H            3.95820901781797        1.84250792294484       -0.38292386730266
H            4.88523401591803        0.44230637984999        0.03096447248955
C            1.62619883477457        0.80564189370601       -0.14546488242902
C            1.73113396053093        2.11332845092492       -0.67318929668446
N            1.91221276534354        3.11441937384841       -1.20863634114127
C            0.27891394218950        0.31812051024846        0.02892901909673
C           -0.08155557390411       -1.08818641533109       -0.10383993357985
N           -1.36495969663268       -1.48332810673417       -0.34246080142625
C           -2.31526925944449       -0.61588480935584       -0.24873614234805
C           -2.09801047804212        0.80133231939623        0.11482701125299
C           -3.32233465905895        1.38840156760306        0.22072767996182
C           -4.31959437271049        0.38807630449041       -0.09177306107572
C           -3.73209688626847       -0.80347502911054       -0.37893824069216
H           -4.20163955846783       -1.72994726725098       -0.64197918474085
H           -5.37625993725725        0.58830538391170       -0.09192679168689
H           -3.53213395560316        2.40931471200999        0.47941447211772
C           -0.75268891741772        1.23528824867095        0.20684465215362
C           -0.52453190155017        2.58442522964187        0.55370251389283
N           -0.42528138247743        3.66135269673522        0.93840700310496
H            4.02895782489153       -1.41895826465526        0.83079375251806
H            2.49096053068498       -3.17673403827320        0.76524950203578
