26
 energy: -48.013611322004 gnorm: 0.000416693087 xtb: 6.6.1 (8d0f1dd)
N           -0.31372289971665       -4.37573308634114       -0.13457105138247
C            0.08011027402292       -3.30036467754954       -0.07413682416549
C            0.66017626927648       -2.00547185086437        0.00635399561658
C            2.07146730607200       -2.06939281346790        0.04617977079992
C            2.99740209093288       -1.07071822395295        0.05712843858375
C            2.80426578566291        0.33315618892774        0.00966746179933
N            3.92670060518621        1.09167335633041       -0.01143549944871
H            3.86051253362283        2.09450682125673       -0.04999308584283
H            4.83390359678701        0.66285867953745       -0.00187194763855
C            1.56312485041081        0.97974184039394       -0.01238342252831
C            1.61681222446098        2.39781415540614       -0.06985046673043
N            1.77223378575247        3.53478853145484       -0.11342797349080
C            0.21892082521686        0.50099201462459        0.01828105344825
N           -0.64299773929560        1.49495595423451        0.00881895798162
C           -1.94860702781970        1.24909369342953       -0.02083650905065
C           -2.47936944507877       -0.13340116397960       -0.06125890190013
N           -3.83201088814279       -0.10894600182062       -0.06959938788698
C           -4.16343987817266        1.16915470557627       -0.00545998993790
C           -3.05900272757490        2.05821743204101        0.06190854641285
H           -3.09678746893789        3.12642575110261        0.12411027698104
H           -5.20226026922887        1.45197619881419       -0.01091296004993
C           -1.60041368332085       -1.17344383744744        0.01587025475106
C           -0.20603346814130       -0.90976291625933        0.03487639814382
H           -1.95446083711512       -2.19288603439206        0.07220596458169
H            4.03484480481173       -1.38116124572466        0.08911364367834
H            2.46514426823092       -3.07941031822944        0.05874730007538
