35
 energy: -62.322650004540 gnorm: 0.000955821762 xtb: 6.6.1 (8d0f1dd)
N           -4.18568682536349       -3.30476459211869        1.00166422553093
C           -3.53690474529520       -2.40436423714248        0.69689394136952
C           -2.75133367414199       -1.30139048775980        0.31198543323914
C           -1.42905843420089       -1.61961928263311       -0.06431382080550
C           -0.32738438217658       -0.83065686731340       -0.28484077566349
C           -0.29261275684732        0.62922773601810       -0.14693660503966
C            0.91435097858984        1.24900795127128        0.12516830217483
C            2.10625586969779        0.53192559857346        0.14586736505547
C            2.11594742993175       -0.85566095969885       -0.27899348643707
C            3.45478784796144       -1.28305394980329       -0.31346379223291
C            4.25425023521754       -0.21451888738176        0.09549423310210
C            5.64391514827160       -0.21713119054138        0.22889722860592
N            6.78622059002341       -0.18703994405740        0.36294710215497
C            3.43037223619352        0.91338094544099        0.38406810317650
N            3.89728824975373        2.15730662741071        0.73105508774986
H            3.26369024976796        2.75185322848034        1.24042753753060
H            4.85290584913882        2.18857991000901        1.05172227548342
H            3.82660315939570       -2.25614755774952       -0.57819930587255
C            0.92280150761418       -1.51126643717275       -0.54171824202227
N            0.94025632765019       -2.80438334403548       -0.95118942983127
H            1.83381987079731       -3.22338255708005       -1.13696638140888
H            0.13288989768616       -3.23146426153796       -1.36609563735054
H            0.94542682464822        2.30565461659582        0.35369443244701
C           -1.44107257149284        1.46244910263274       -0.37632638030005
N           -1.18057393009362        2.71861162899456       -0.80218230298956
H           -1.93770750596715        3.35895726911356       -0.97625367658968
H           -0.25211748785745        2.97817809620347       -1.08180022794751
C           -2.79845613111537        1.15644922553653       -0.17754285139748
C           -3.70810453978357        2.20268567547624       -0.41105741631548
N           -4.45865698979382        3.05480728435412       -0.60845347860174
C           -3.39103057035839       -0.05548890951582        0.28664211286264
N           -4.68570834477944        0.00201828493959        0.66547233895272
H           -5.16883619342623       -0.84287033861861        0.92146461089351
H           -5.20479315265901        0.85969749520341        0.58517482764852
H           -1.26103531569247       -2.69023494160349       -0.07705314368242
