31
 energy: -54.638025722479 gnorm: 0.000306894114 xtb: 6.6.1 (8d0f1dd)
N           -4.01955989334541       -3.30388840334276       -0.01795769337488
C           -3.32144701294765       -2.38744187193530       -0.01142098502606
C           -2.48386523260804       -1.25888962711951       -0.00450649611811
C           -1.10731531586287       -1.53838549309013        0.00028843668776
C            0.01899700636465       -0.73871193786955        0.00280472588449
C            1.26051824519511       -1.41648636359977        0.00946272587195
C            2.44141399384291       -0.73347364269930        0.00556296476446
C            2.44144810205921        0.73327818320437       -0.00648132929412
C            3.81768371681894        1.08626819178812       -0.01323017694933
N            4.34567302946854        2.33566784952241        0.03610008494213
H            3.76924457788964        3.10510904984176       -0.25765335776053
H            5.33243916279721        2.40379837442975       -0.14871887959446
N            4.60676747737602       -0.00014858875100       -0.00075254915280
C            3.81763857244107       -1.08652690259912        0.01194575159453
N            4.34555468820471       -2.33595032720637       -0.03752251573620
H            3.76917135404687       -3.10536438166535        0.25639035651267
H            5.33236903576835       -2.40412638471082        0.14701801892611
C            1.26058032338486        1.41634452897288       -0.01007434890409
C            0.01903434558260        0.73862511025068       -0.00313259429319
C           -1.10724103424924        1.53835093539984       -0.00029650204832
C           -2.48379691326295        1.25892669745864        0.00485628646550
C           -3.32130841422369        2.38754047367699        0.01239804223454
N           -4.01938972389592        3.30410351930243        0.01847847714671
C           -3.13699612857697        0.00003464093997        0.00025015970780
N           -4.48052360821762        0.00006665705505        0.00043690673312
H           -4.98692075545065        0.87085288314585        0.00476007103483
H           -4.98696080987332       -0.87069704204704       -0.00376422566042
H           -0.90298598129235        2.60532037595938       -0.00087654867791
H            1.25200651080200        2.49851078834690       -0.01451341397781
H            1.25189384268897       -2.49865209128813        0.01393842187697
H           -0.90311488672492       -2.60536506817118        0.00087537018467
