32
 energy: -64.748173723349 gnorm: 0.000670475373 xtb: 6.6.1 (8d0f1dd)
N           -0.85592317449612       -4.60195022114720       -0.33312734331661
C           -1.22515174216654       -3.51825920717892       -0.28866428563947
C           -1.78409589515465       -2.21208280866461       -0.25413178118726
C           -3.16189326091559       -2.16047048815755       -0.48700791705018
C           -4.01493826756655       -1.09280665383492       -0.38845968565968
C           -3.73801273042500        0.23208346186389        0.00543045499425
N           -4.80915655388950        1.03131676959080        0.20796011929959
H           -4.69315652347801        1.99064397840191        0.48841586729258
H           -5.73879310141659        0.66289461550202        0.11718667667739
C           -2.44910983360342        0.79945510436388        0.16507943521375
C           -2.48181859904687        2.11344108544069        0.69947792883100
N           -2.62258519942428        3.10325269868190        1.26559788032913
C           -1.16373427674416        0.25529966067273       -0.05916316047666
C           -0.84798344476190       -1.17702812956225       -0.06266796894780
N            0.39575973203223       -1.63171623909473        0.08245106735136
C            1.40287778997323       -0.79028260260921        0.11634672143516
C            1.23069729683775        0.66009458097238       -0.08804681139568
C            2.49625952648985        1.23984137421813       -0.13142820918645
C            2.85598434587879        2.57482023080143       -0.32240821517789
N            3.23797163686740        3.64891451820957       -0.46927870616859
C            3.45386617496542        0.19536862164737        0.08486233473543
N            4.77269820966884        0.36615594021739        0.13276129328877
H            5.37945746644852       -0.42268442707437        0.28804942956764
H            5.16839052994583        1.28423787216905        0.00784161355832
C            2.77254493096202       -1.04798670541450        0.23288258743141
C            3.41900454551215       -2.26556699262335        0.44884018605528
N            4.02290875559749       -3.22591493418578        0.63167927500984
C           -0.07214366913228        1.14959043788556       -0.17633985385738
C           -0.25802161085049        2.51362924476574       -0.49930275323384
N           -0.34497061947853        3.59113641374172       -0.88326870799022
H           -5.06133665929569       -1.29815600093555       -0.57710716860075
H           -3.61306620783360       -3.11150225756161       -0.74318089578301
