32
 energy: -53.563261376029 gnorm: 0.000853011789 xtb: 6.6.1 (8d0f1dd)
N            6.11063416763031        0.49438470010627       -0.48468517849937
C            4.96890504344071        0.46574866316100       -0.33498739037070
C            3.58636382332791        0.38836079532383       -0.17456202622324
C            2.69187552781760        1.48269726425560       -0.11897094244802
C            1.41251785480574        0.96954226171982        0.02380765890301
C            1.50971218828398       -0.48984740169798        0.05563182884406
C            2.86858692867754       -0.82197544609482       -0.07938730590141
N            3.42671144039498       -2.09366002324521       -0.02192203819458
H            2.85693751025372       -2.82152501240672       -0.42829931788944
H            4.38508754877703       -2.12637578559452       -0.34117535391566
C            0.36487689900099       -1.24948933991165        0.18006421903736
C           -0.90450574412131       -0.66924169218887        0.24886488462266
C           -2.03554897281304       -1.54295096153678        0.37275480275933
N           -1.80149210323856       -2.81040873544252        0.82249076982564
H           -0.97077436285534       -2.99695430300927        1.35393690928573
H           -2.59106177225859       -3.41175419744119        0.98056596319705
C           -3.32704600533445       -1.28991513193956       -0.07535992846074
C           -3.84050923497948       -0.06766229755345       -0.52196383028190
N           -3.41402849541941        1.13613739383812       -0.17598034749019
C           -2.25326784633033        1.47581602297560        0.33817009359271
N           -2.25863009550135        2.68080803476057        0.94411430417973
H           -3.11566173744885        3.20481160661424        0.95945751028876
H           -1.42386527229097        3.06274976463754        1.34948791266997
C           -0.99823159364315        0.78166224003534        0.21637966728314
C            0.15608127276557        1.54942602632111        0.12091188324405
H            0.08108420041913        2.62704765835787        0.05178180647640
N           -5.01401602939473       -0.06449256274617       -1.20597291606608
H           -5.34217763687364        0.81531160944992       -1.56273380243250
H           -5.36515659687009       -0.91263171336630       -1.60992573970867
H           -3.99959858694578       -2.13786072894487       -0.11926976852702
H            0.45834648879062       -2.32686688149904        0.15024921863801
H            2.97653044613204        2.51693459705898       -0.17548613743736
