26
 energy: -47.225899289935 gnorm: 0.000948534083 xtb: 6.6.1 (8d0f1dd)
N           -1.28844663368707       -3.89896229976439       -0.02182594646283
C           -1.41922526335108       -2.75958543889838       -0.01456624694669
C           -1.66968197434156       -1.36264243906741       -0.00447772910568
C           -3.01259116662426       -1.01375842215571       -0.01094680214277
C           -3.60584587014151        0.23384937332370       -0.01039623693348
C           -2.98969878820959        1.48926570759072       -0.01325789774128
N           -3.79935301285977        2.58205882082685       -0.05039650889443
H           -4.79333574410124        2.47862290054142        0.04439753148807
H           -3.40559760349669        3.50082201696917        0.04291344659606
C           -1.60838140097667        1.73978971080723       -0.00886358084148
C           -0.50019282671021        0.90889516550971        0.01049611084413
N            0.66176551248812        1.60684740705899        0.01718283818120
C            1.77133708907075        0.91689761445299        0.01681791406973
C            1.77156770143030       -0.57535251600293        0.01939987260451
C            3.08975836650337       -0.93884846203858        0.04295654398699
C            3.80641253927783        0.30133544822047        0.04249177428020
N            5.13657377243990        0.42857430089910        0.05716143716273
H            5.53227767928913        1.35230469134811        0.05444732288627
H            5.73279139295256       -0.37887631738097        0.06813186553387
N            3.01952282795593        1.39100390622940        0.03117326173061
H            3.51941803440818       -1.91959306292205        0.05704037248879
N            0.62770113212494       -1.26099177158284        0.01776151127725
C           -0.49568637806210       -0.55935366583721        0.01225150397969
H           -1.32672993614159        2.78751263360731       -0.02179645479664
H           -4.68904397996308        0.24438847952600       -0.01431918385992
H           -3.69650636387455       -1.85535519506105       -0.01744587488473
