30
 energy: -50.109485039479 gnorm: 0.000748222816 xtb: 6.6.1 (8d0f1dd)
N            4.17879133807783        2.83986498337238       -0.30952338977234
C            3.44021010539495        1.96154396915128       -0.20927829045446
C            2.56219179661242        0.87091252393300       -0.08698158624451
C            3.13239103784213       -0.41475853082688       -0.17787120899756
C            2.45504534300225       -1.61974197864273        0.05390193961592
C            1.10880070073771       -1.90065115220056        0.20688630644003
N            0.82283384036016       -3.19149458426596        0.51471538308391
H           -0.10175926530791       -3.44898757297898        0.80774081405373
H            1.57305579693135       -3.83344697539333        0.69982004566359
C           -0.02975397501481       -1.02337480196044        0.02995108733664
C           -1.26391179094836       -1.59942364422338       -0.20799140897450
C           -2.43447504858508       -0.84024137646151       -0.23411685008465
C           -2.35162396364793        0.58655531541756        0.05871225879844
C           -3.72195801555451        1.02683072388092        0.00629679511076
N           -4.17663714827250        2.28459699749266        0.29277280851617
H           -5.13466113831520        2.44982676356858        0.02686499067730
H           -3.54035693175430        3.04604478766254        0.12025084832545
N           -4.53465448062038        0.02653517755421       -0.28414533919501
C           -3.77585453600010       -1.09596646447144       -0.43381971672119
H           -4.25273745000477       -2.02713132402869       -0.67899173449146
C           -1.14633826243827        1.17857556637379        0.24349612671998
C            0.06560860554065        0.43083757666852        0.15949012036891
C            1.21562485435429        1.19600459281207        0.14516746765398
H            1.05524351512537        2.26340121472965        0.25989994160840
H           -1.07170669826215        2.24589134337738        0.40996491707839
H           -1.35443950884148       -2.65726292727936       -0.41312806412331
H            3.10884511937833       -2.48333920026330        0.13054052251849
N            4.46094867069269       -0.49479969069715       -0.42553795714332
H            5.00346455316886        0.34560502802768       -0.53055785495541
H            4.92664421784783       -1.38340496933075       -0.44512506551108
