31
 energy: -53.844727117712 gnorm: 0.000555716041 xtb: 6.6.1 (8d0f1dd)
N           -5.86200273731289       -0.38202081099479        0.24164397921866
C           -4.71401155574216       -0.33562403241438        0.16269121350777
C           -3.32509529910058       -0.24563853528447        0.08890498642297
C           -2.42292969091655       -1.33460416853359        0.08983307532322
C           -1.13640846280078       -0.81898994230050        0.02673039541130
C           -1.23821150868326        0.63434508168322       -0.00972730671057
C           -0.09407726640228        1.40658238519568       -0.06304317744549
C            1.16760120490072        0.82226259148565       -0.04362903321804
C            2.31651695929949        1.66944330802392       -0.13958460284743
N            3.48858327571356        1.48517260292457        0.46541815675863
C            3.96708623490978        0.33347359325429        0.84904564989250
N            3.70306892803528       -0.85389466623459        0.37328325687350
C            2.57558491883755       -1.23981997125320       -0.21091107765187
N            2.68494743914853       -2.37572417306612       -0.92608621817092
H            1.88835270527754       -2.75210689913912       -1.41018826622505
H            3.60147774963615       -2.76564307010121       -1.06261766367920
C            1.28634162899077       -0.64006797246712       -0.02483772115733
C            0.12580568439161       -1.42817448963637        0.01159852461999
N            0.18675370454087       -2.81825165080467        0.03619783126946
H           -0.69342226663387       -3.23598819866199        0.30057071000787
H            0.96820215523859       -3.21325131438739        0.53892850635664
H            4.80510009441345        0.38268037660488        1.53772605865882
N            2.21268960096259        2.85436717954839       -0.77155212949368
H            1.36068084001979        3.13505120783134       -1.22161121948250
H            2.99930239436942        3.47944886084933       -0.73796161471852
H           -0.18313030108950        2.48488605650354       -0.04661303487872
C           -2.60490860112474        0.96420078526704        0.04030948866147
N           -3.15693855205681        2.23196422039446       -0.04779658683300
H           -2.60148326946567        2.96940595053247        0.35891994661884
H           -4.13040878472762        2.27474646957817        0.21769986676368
H           -2.72631357232880       -2.36574227619725        0.12046358664713
