28
 energy: -51.481814349404 gnorm: 0.000737863672 xtb: 6.6.1 (8d0f1dd)
N            2.58904815637601        3.75894248819293        0.04996528381258
C            2.43627914732315        2.62150325343509        0.04370825305450
C            2.34565400812725        1.20606125964526        0.03919527344460
C            3.61305257637253        0.59598345244799        0.20596853242318
C            3.93873440527867       -0.72252554062548        0.14941243816253
C            3.03681565647878       -1.80775462854578       -0.08439386035414
N            1.73278259309668       -1.80731154209406       -0.06256212335705
C            0.82468797821103       -0.83127792851773        0.00349255826727
C           -0.48180065034439       -1.29190573941923        0.10199939752322
C           -1.55523135232230       -0.41600390410233        0.05764473624679
C           -1.31299459328963        1.02290118513174       -0.11886722990174
N           -2.46744980540649        1.71276952485694       -0.17921014856843
C           -3.43951427056240        0.81034182282182       -0.05149892161117
N           -4.73067816410672        1.14734060050702       -0.06320222582517
H           -4.97821940474424        2.11569711101151       -0.16824150799317
H           -5.44309044663650        0.44487440509718        0.03249390958822
C           -2.93978215852612       -0.54379491885426        0.09786135061178
C           -3.73928286286072       -1.66795229768618        0.24033375980312
N           -4.44719641627507       -2.56983063553814        0.35287759274453
C           -0.02729173112513        1.50135905732111       -0.18075885223346
C            1.07188352503606        0.63223584103536       -0.07072857915950
H            0.13672085221458        2.56346740071585       -0.28360508441655
H           -0.63974816367623       -2.35668272221681        0.17881469495167
N            3.59134557158553       -3.02346964132043       -0.32111326337157
H            2.97268215440409       -3.81140589748740       -0.39364002974951
H            4.57813386408594       -3.17668843867062       -0.22608967720638
H            4.97887763464057       -0.99014147523622        0.28188406782685
H            4.42636176614562        1.29314168959465        0.37294362288696
