31
 energy: -55.449609242074 gnorm: 0.000617847314 xtb: 6.6.1 (8d0f1dd)
N           -2.20793847316721       -3.90475425334395       -0.01544668243652
C           -2.24850374860261       -2.75811298023945       -0.01517248345199
C           -2.41590083377583       -1.34778617892362       -0.01382535907872
C           -3.76524845197683       -0.99587191308817       -0.01768028811050
C           -4.35970839997963        0.24755450991557       -0.01102356151672
C           -3.73953506162990        1.50104497704229       -0.00587373900663
N           -4.55000504116765        2.59767845599935       -0.03651961293323
H           -4.16069853149618        3.51350359006215        0.09796071960154
H           -5.53947454584345        2.48901306933523        0.09547515198236
C           -2.35761223923217        1.74210066628801       -0.01180479699130
C           -1.24048104396571        0.91546980540697       -0.01415283924543
C            0.00064241284755        1.58545193395787       -0.01737076985330
C            1.19068696330657        0.90351500902735       -0.00941222820275
C            1.18729720507731       -0.55456244462196        0.00263371498440
C            2.51998188925399       -0.98409183759699        0.01306973698372
C            3.00565808404787       -2.28802215337702        0.02805940277323
N            3.45606492606404       -3.34713459665175        0.04207165289261
C            3.35483274036583        0.17881334615411        0.00706947206475
N            4.69460658850659        0.16024467178724        0.01464011007156
H            5.18633951589920       -0.71685923829634        0.02470344086843
H            5.21327475080201        1.02150193885618        0.00912683111787
C            2.53720127555623        1.33263475759882       -0.00711374160546
C            2.99785533362828        2.64487382590118       -0.01555834896279
N            3.39708014404310        3.72503197311710       -0.02185339872620
C           -0.01933202449730       -1.23315731390182        0.00122394250232
C           -1.23789793862033       -0.55681930993800       -0.00835354582506
H           -0.01121208968604       -2.31381964641051        0.00749211083440
H            0.01221865278604        2.66638600464434       -0.02473081216138
H           -2.11209280828050        2.79994385041887       -0.01490236122712
H           -5.44255957905944        0.25866941018548       -0.01168252828802
H           -4.44819103760373       -1.83775698770853       -0.02224233855402
