35
 energy: -62.317650367278 gnorm: 0.000872412438 xtb: 6.6.1 (8d0f1dd)
N           -4.61904323093858       -3.08328804362755       -0.69778212338715
C           -3.88014127727198       -2.22703350373777       -0.48222159828348
C           -2.98624048956434       -1.17356470800969       -0.21883729024827
C           -1.63951670636350       -1.54589043547187       -0.13242988130819
C           -0.46069770685338       -0.84334843564153        0.03773402620986
C            0.73334206773721       -1.59743876831291        0.21635643236698
N            0.72044519104407       -2.94669227918265        0.40157716024687
H            1.60329595335509       -3.38211573344331        0.60262368119341
H           -0.09722974248268       -3.41537104297796        0.74607642682304
C            1.97386468244124       -0.94984214776259        0.16076504473264
C            2.05449836266740        0.47881135579960       -0.06753745167741
C            3.42002537868051        0.82751936225455       -0.08635713050553
N            3.96143035192907        2.09427977058472       -0.26344082286166
H            4.97169132451066        2.09393749790518       -0.18833726131800
H            3.54973488271943        2.81408263155417        0.31689445301738
C            4.16005161550402       -0.36294222370590        0.08585878239218
C            5.55425312767752       -0.41956939671947        0.12555589487784
N            6.70391389733499       -0.42136312819605        0.16630921627840
C            3.27413331034552       -1.44453761070925        0.23778241025357
H            3.58732776719342       -2.46279352190928        0.37922814985093
C            0.90574324970481        1.24332432988544       -0.24526616327118
N            1.03520636708787        2.56295090815449       -0.57519446090533
H            1.93841222749628        2.82328647507950       -0.93959310537046
H            0.25316749315276        3.03386756555347       -0.99799375366636
C           -0.37517301493817        0.63663294521821       -0.04627306721526
C           -1.44886410152214        1.48272156871753        0.11401958741611
C           -2.83515657547023        1.28014522746415        0.24306027945307
C           -3.58337806096881        2.43920570972596        0.51474033466644
N           -4.20451767836475        3.38315526102060        0.73629919987863
C           -3.57208128703883        0.09560088674628        0.02758609802134
N           -4.91411525477810        0.17053952113945        0.05321896236755
H           -5.47130421601450       -0.65092033718637       -0.11656158522740
H           -5.36823806022265        1.05106194818776        0.23365966542461
H           -1.19778623138190        2.53529137749723        0.19735010988424
H           -1.52151426390878       -2.61790177109400       -0.25010822870936
