35
 energy: -56.692809101109 gnorm: 0.000668673263 xtb: 6.6.1 (8d0f1dd)
N            4.99692887356110        1.79813075831559        0.51645144308325
C            4.07696737497374        1.15243189526124        0.26186399262513
C            2.94730017889525        0.38045622451023       -0.04878130354220
C            3.18743375470413       -0.78675296918490       -0.81045937764458
C            2.35026411626490       -1.82780587115360       -1.02571778206057
C            1.06007186647235       -2.08220080100275       -0.45936534880533
N            0.71251733200848       -3.40860725908205       -0.51908987864843
H            1.25622138866731       -3.98185847277976       -1.14324037113883
H           -0.26657744614445       -3.64062042565200       -0.43766749708134
C            0.18156341914163       -1.13908911354101        0.07184120066580
C           -1.10287146377522       -1.54836369935430        0.56715558103781
N           -1.31605127949607       -2.83778686000212        1.04334476317295
H           -2.22158646291050       -2.94575834277772        1.47636410243022
H           -0.56224237587799       -3.22024251068944        1.59586302347233
C           -2.17529531664343       -0.68772699749221        0.44623942449574
C           -1.98662363513799        0.63828360742237       -0.10567619319691
C           -3.24953862062498        1.20949733401307       -0.25046887556523
N           -3.53907432549194        2.49433146719473       -0.75737059986736
H           -3.20444735555822        2.62295469482366       -1.70683245208316
H           -4.53595608844575        2.67397434790918       -0.72941114936321
C           -4.20072557135642        0.28654655876605        0.23668265618003
C           -3.56195142261788       -0.85360972014488        0.67388369461327
H           -4.04891666947890       -1.72613163857992        1.07267717137409
H           -5.26322032727457        0.46181764724342        0.25967813204047
C           -0.68341305612587        1.16201730434464       -0.18704201948861
N           -0.54813257326184        2.54498455943138       -0.33947515009271
H           -1.43325857863240        2.99495565812474       -0.52525805118279
H            0.19724470708263        2.85112230266312       -0.94741231568435
C            0.41164822421826        0.32035225922391       -0.00813111456074
C            1.69431785911922        0.89074763743050        0.31477293576640
N            1.68711282552764        2.03337610864152        1.03641444068621
H            2.55515259041307        2.50482429472731        1.22959066728805
H            0.81183015098535        2.49615105332524        1.21868197208780
H            2.74454958292217       -2.64323824298454       -1.62104793288821
H            4.18397448739513       -0.85977160455103       -1.23063166462541
