30
 energy: -50.907328952477 gnorm: 0.000541202099 xtb: 6.6.1 (8d0f1dd)
N           -1.39209148683443       -3.54491106592208        0.99445395835891
C           -1.46968609694724       -2.47963156790789        0.57291206632478
C           -1.73305911675037       -1.13758584581854        0.19638853349191
C           -3.09658374195716       -0.88640427325889        0.10813076410764
C           -3.76558008448832        0.29894143537386       -0.14098430075173
C           -3.23341013143197        1.58492335481755       -0.17402119096110
N           -4.10827603784750        2.62608794612234       -0.34572776682462
H           -5.03491460699158        2.42492924971481       -0.67827476559073
H           -3.74470174690751        3.54045022940214       -0.54886400753271
C           -1.89262136029046        1.93299797220908        0.07102287831833
C           -0.72533330879946        1.19393617026532        0.16688305125597
C            0.45936964782701        1.94460463601049        0.35329962350969
C            1.70392822061462        1.38091078619361        0.25135095194407
C            1.81974268049950       -0.04902385621687       -0.08631660776460
C            3.14679793143704       -0.34544985710652       -0.21859868622650
C            3.88583209540545        0.85684138332683        0.05212444543185
N            5.23316868000266        0.93478278341151       -0.00642106054683
H            5.69875029900064        1.76352273560985        0.31866488313354
H            5.77118753463366        0.09124486942430       -0.09602357643126
C            3.00334291070488        1.89616720186586        0.33380802948261
H            3.27120396512943        2.90876594845829        0.56745525085626
H            3.57964059579267       -1.29622722805809       -0.46529662261299
C            0.64405758838700       -0.82964537966063       -0.17041864598250
C            0.83076229366948       -2.17277907974935       -0.55601937005777
N            1.09429001900843       -3.20943957927811       -0.97632306679881
C           -0.61582573311165       -0.26833678794383        0.03418170551099
H            0.36844709821893        3.00857261526102        0.52576802094759
H           -1.73980140567592        3.00565666928096        0.14621038065870
H           -4.83831185656183        0.22493397208077       -0.26934694399596
H           -3.72543390763193       -1.76126271180205        0.22691603383997
