34
 energy: -56.997343486524 gnorm: 0.000742882652 xtb: 6.6.1 (8d0f1dd)
N           -6.12242055974804       -0.28041734090896        0.41989422203561
C           -4.97766902377973       -0.25660134410342        0.28967217304899
C           -3.59271009533714       -0.19717785175392        0.15488203595837
C           -2.71383331386954       -1.30575353513045        0.13890903346734
C           -1.42098439727793       -0.81816984852557        0.00362257706505
C           -1.49564591267555        0.63167110451452       -0.05479226663220
C           -0.33179355751992        1.36845314423425       -0.15296059748079
C            0.91408152911227        0.75108666493162       -0.19928128110770
C            2.05534946241388        1.60980590564826       -0.29596618804688
N            3.25067500487678        1.44071720353662        0.23649336373299
C            3.86203710512415        0.30544003005203        0.51358769051731
N            5.04045099265951        0.44710941752800        1.17594950992489
H            5.23884770086563        1.34534454462776        1.57952056708816
H            5.51233125380715       -0.36105839884756        1.53789280442917
C            3.52093197275002       -0.95426206427864        0.00582323489322
C            2.26335767953730       -1.38373584967870       -0.40132859012354
N            2.22376435178759       -2.63430408431849       -0.94656413171777
H            1.37852067156143       -2.93081269846494       -1.40480835791778
H            3.09117194366581       -3.04660144555484       -1.24348390506595
C            1.01156016412661       -0.70880382743381       -0.18585652183781
C           -0.17255749734753       -1.45609160310600       -0.04876371624198
N           -0.17475207598204       -2.84907110806046        0.05360828151093
H            0.60147074429649       -3.24568246051133        0.56369747301359
H           -1.06505164655342       -3.19577652180099        0.38025886058907
H            4.31966588218188       -1.68435111786659       -0.04567642343014
N            1.89814714235368        2.83396844852641       -0.85336935617829
H            2.70716005816833        3.42768664408668       -0.90291304142805
H            1.08326595682151        3.05446235777747       -1.39544327423603
H           -0.39090844478692        2.44789247650446       -0.11954041319427
C           -2.84927302878215        0.99452063173184        0.05103902950163
N           -3.37584666040025        2.27774137844465       -0.03819025944230
H           -4.33292231522208        2.34305615847042        0.27903217546738
H           -2.78541062784203        2.99973748999214        0.34855230257006
H           -3.04012165408698       -2.32912934516204        0.19837893466739
