27
 energy: -52.534322173488 gnorm: 0.000898379380 xtb: 6.6.1 (8d0f1dd)
N           -0.69341424994623       -3.69423089917284       -0.92031984744371
C           -0.99119985124540       -2.66161511104962       -0.52051318053193
C           -1.53695374403550       -1.39974677017581       -0.15782894554669
C           -2.92264883867538       -1.45991469268263       -0.03688899743629
C           -3.84757089888863       -0.46102619513599        0.19928237032178
C           -3.64057138357858        0.92106457637408        0.21044681822859
N           -4.70847006883638        1.72480931737439        0.41923025982213
H           -5.62080938418420        1.33638617577750        0.57477975189483
H           -4.60562419478949        2.72345494594550        0.40215297490938
C           -2.40750867464460        1.55942565758666       -0.02951730190608
C           -1.10838616139928        1.09529257858425       -0.12541459249431
N           -0.24211203257066        2.12418053027033       -0.28797822130173
C            1.03234607258917        1.89266331775415       -0.26711746799820
N            2.01240142418524        2.81791706118415       -0.38346290315564
C            3.14223000441794        2.16882609614338       -0.21483339263199
C            2.98305747958129        0.76530465153755        0.03360786601289
C            4.02281856261303       -0.13916160762049        0.25640987967338
N            4.90442914384333       -0.85268468982075        0.43653595448195
C            1.61305401031629        0.55015879504061       -0.02100283330261
C            0.73050284829780       -0.52828154486897        0.08688678460103
C            1.27463376780300       -1.79055999502147        0.42206237858331
N            1.79052896396312       -2.74463939361026        0.79404794781366
C           -0.65180981134250       -0.29513581290587       -0.03939317755202
H            4.08459838514816        2.68569756263234       -0.26605902350426
H           -2.45239552190777        2.64006000464013       -0.10878789270491
H           -4.87081808208069       -0.78644858328233        0.33946640160733
H           -3.33325473373514       -2.45937636709327       -0.12465254564132
