32
 energy: -53.543690022735 gnorm: 0.000571120782 xtb: 6.6.1 (8d0f1dd)
N            4.89997093589233        2.13133075242119       -1.11599959502623
C            4.12302406672589        1.34936822350980       -0.78934954497341
C            3.16382218438254        0.40386683587367       -0.37331193772931
C            3.56542335076077       -0.90511076407804       -0.29942196047236
C            2.82206323755715       -1.99903203191429        0.16811826924554
C            1.47009394299889       -2.08823603403089        0.39936042401530
N            1.00970125686293       -3.25780268970637        0.91785510044838
H            1.67036170110071       -3.94188130606097        1.24423748896072
H            0.06576312260992       -3.31277777975807        1.25701029389585
C            0.43073026712778       -1.10308803854125        0.09426677543237
C           -0.83316479732125       -1.55346850771282       -0.18383758653368
C           -1.90631761929787       -0.65363755897327       -0.28398029347558
C           -1.69484205879437        0.73126666278743        0.07380118826793
C           -3.00772059335466        1.31886004379747        0.00123907711644
N           -3.91792477047718        0.42760175486850       -0.33372000917853
C           -3.27288675644781       -0.77241755019683       -0.49791112412727
N           -4.00479655572541       -1.90092493251926       -0.77712206488014
H           -3.52439560590334       -2.61648538486324       -1.29964420417286
H           -4.93994280269923       -1.70175860108826       -1.09738933059060
N           -3.32393161960277        2.63600428572333        0.25878453248969
H           -4.29530371259977        2.83016971823486        0.05377165629272
H           -2.69761547662876        3.30936755572661       -0.16115626620499
C           -0.45882164043237        1.20064200945647        0.42525393323255
N           -0.28683632562526        2.47999366036469        0.88135416172215
H            0.55467350975866        2.68246052971816        1.39621676606950
H           -1.12088784216812        2.92581825672105        1.22987370271817
C            0.69483421403916        0.33232726165833        0.20098001724972
C            1.89316458916775        0.95372969744142       -0.00693154916406
H            1.89463498606009        2.03708895141124        0.00944242737493
H           -1.02421736146871       -2.60650219235731       -0.33547322816719
H            3.39364749453829       -2.89870915091472        0.36552694855846
H            4.59763229056481       -1.11017229249930       -0.55808697559406
