32
 energy: -54.353780016120 gnorm: 0.000853834214 xtb: 6.6.1 (8d0f1dd)
N            4.29180732468482        3.01237123245695        0.18921088605688
C            3.47232515516668        2.20588683540510        0.12883333695843
C            2.48879596656078        1.20120378245784        0.06083346323680
C            1.16850055604425        1.65723942287913        0.03505937345444
C           -0.06574823657999        1.02327926185520        0.01189419211939
C           -1.18318959828700        1.87038457218855       -0.05397575940775
C           -2.46280641721115        1.37317984617949       -0.09045322052446
C           -2.68526718449906       -0.06463338097108       -0.01293285970144
C           -4.08101997876063       -0.26378158628620       -0.05973766436843
N           -4.74503810353343       -1.48802224913811       -0.02561662634571
H           -5.74152360110016       -1.38836616571638       -0.16951058425921
H           -4.35452454043954       -2.18751058391630       -0.64375254234643
C           -4.69264451191185        0.99870501344633       -0.12584576017509
C           -3.72371566750134        1.99037703420005       -0.13947442549257
H           -3.90117464885969        3.04825323272947       -0.18882599378876
H           -5.75617622545668        1.15864252042368       -0.16326894707186
C           -1.61957784129974       -0.93513895717018        0.16419938148381
N           -1.88652465040917       -2.25730253638120        0.40343991285919
H           -1.17989033546217       -2.81950495671954        0.84770047428275
H           -2.82762560851012       -2.44222104015817        0.71482708274778
C           -0.27227630801280       -0.43990067633120        0.06665029968718
C            0.73883035046612       -1.36827727869674       -0.02543364782828
C            2.14236293162729       -1.27452705846633       -0.09437093756929
C            2.80288533890742       -2.51052354055298       -0.21585720708946
N            3.34649935002543       -3.52145642175401       -0.30934777910457
C            2.96872782278435       -0.13303248904353       -0.01827056866883
N            4.30163865174798       -0.31689406591896       -0.03136663825065
H            4.92268135683201        0.47437295981640        0.01359300135218
H            4.68496339869278       -1.24501800160039       -0.10484041692623
H            0.41938523116151       -2.40318722616745       -0.08929420867114
H           -1.02561868166436        2.93952208401683       -0.08191989512427
H            1.10567459299741        2.74151951803311        0.03504937747533
