27
 energy: -46.939890041954 gnorm: 0.000845796291 xtb: 6.6.1 (8d0f1dd)
N           -0.88412213343553       -3.62342230937795        0.03924393576334
C           -0.95849689362023       -2.47662566162807        0.01324693536648
C           -1.18115008801431       -1.07710259937836       -0.00309570812958
C           -2.52649268101050       -0.68117055283728       -0.00699684893567
C           -3.01224591093057        0.63829306136802       -0.01693405210012
C           -2.32927621880342        1.83781516363483        0.00079994581735
N           -3.07022998708113        2.98619480848173        0.04089417666596
H           -2.61827521430154        3.86889811930551       -0.11824164359583
H           -4.05868688571648        2.94099092728732       -0.13174863876477
C           -0.92506976241304        2.02205882417392        0.03241615647326
C            0.12375424327884        1.13648091953340        0.02285081999988
C            1.43372013835939        1.70985703151355        0.04954043018295
C            2.51723759659034        0.89498240485013        0.03348716366332
C            2.31186344041344       -0.56893618007385       -0.02030398259351
C            3.57527454193520       -1.10737304746566       -0.05148113273264
C            4.45280726221522        0.01225947297010       -0.00766308535400
N            3.85151391019948        1.18336825569718        0.04249322096534
H            5.52935292349006       -0.03430086918100       -0.01233629767828
H            3.85798278750394       -2.13936707444588       -0.09572874768119
N            1.09394031712450       -1.11500666300671       -0.03346421972357
C            0.03527584681347       -0.33452197146212       -0.00952959192598
H            1.53968778150082        2.78579541701039        0.07588503597542
H           -0.63014779672611        3.06717799636594        0.06690567664970
H           -4.09380353254921        0.71918434042247       -0.03493412169978
N           -3.47149820934885       -1.66137586549772       -0.04586799187793
H           -4.43904005674148       -1.43191178567426        0.08991382929416
H           -3.19077791993233       -2.62256672538565        0.04830359247566
