26
 energy: -48.019082814211 gnorm: 0.000620361090 xtb: 6.6.1 (8d0f1dd)
N           -2.78002464942633       -3.50120387173286        0.07230592382076
C           -2.48289989830329       -2.39331153957382        0.08577567684430
C           -2.17189997717388       -1.00908053869236        0.09442535981254
C           -3.27937434602124       -0.19637703821301        0.50408498692363
C           -3.41000316647880        1.14129539470190        0.40350371437198
C           -2.41509054847576        2.03623811968865       -0.15651266523082
N           -1.14095031163506        1.84201122382485       -0.20134189461278
C           -0.36934223039816        0.76131021439330       -0.03794620045824
N            0.89527762276073        1.02625665510473        0.15184629314403
C            1.78650919901426        0.03301782694359        0.11208607520237
C            1.41951827580647       -1.34688684386529       -0.24503715942179
C            2.63744973240520       -2.10678414242209       -0.31593744746093
C            3.66261352783091       -1.27486434459997       -0.01191179288043
C            3.16128067298661        0.06613268069416        0.25266049698922
C            3.96306309896348        1.15858526725520        0.57545371233280
N            4.65134137780463        2.03970120685346        0.84522516780021
H            4.70685461233732       -1.52783416980868        0.03275182255969
H            2.69494835626998       -3.15215281186956       -0.55278100320380
C            0.10957800859037       -1.65228142645251       -0.41420121470101
C           -0.86702338084655       -0.63380265040441       -0.17478425265193
H           -0.21847603039698       -2.65319855034698       -0.66331463800464
N           -2.85765517566908        3.22638830377270       -0.61716604255621
H           -3.80535976410569        3.52411249744530       -0.47495617717886
H           -2.16798990322353        3.89400182218029       -0.91678690119699
H           -4.32899927398919        1.59839644521258        0.74577559413136
H           -4.11758537622692       -0.75581125138939        0.90392897842554
