31
 energy: -53.845083384428 gnorm: 0.000526427312 xtb: 6.6.1 (8d0f1dd)
N            5.83458933318216        0.68662258755495        0.21305997647812
C            4.68365691834128        0.65946079304303        0.18550003653379
C            3.29370205403631        0.56870049241871        0.12514954107751
C            2.37815380816662        1.64303823201898        0.15725617890629
C            1.10305519859115        1.11118697235338        0.04444518371116
C            1.21951899600149       -0.33629242986155       -0.03226675285124
C            2.59014403637149       -0.64718719692141        0.00536020561486
N            3.16077205136715       -1.93067077648387       -0.03028054137599
H            2.90517326810528       -2.45493619817300       -0.86003886586154
H            4.17100169627874       -1.87785374984020        0.04285320165312
C            0.08519748759355       -1.14567437219472       -0.03891928527203
N            0.26040921867701       -2.51713537514956        0.00741750186976
H            1.18292474225994       -2.76936078034163        0.33927978454169
H           -0.48068177238629       -3.04024694949346        0.45100240359618
C           -1.20107653730408       -0.55053495049212       -0.04183606037974
C           -2.37400302072373       -1.34416118778025       -0.14854275911752
N           -3.53669870559280       -1.10914906768167        0.46556973491021
C           -3.99712870538967        0.03784621050616        0.85995466787097
N           -3.71760568163236        1.23219112974165        0.38867253649496
C           -2.57791632854046        1.57204203110126       -0.18534717958301
N           -2.61956911798746        2.71676532370326       -0.88732294046062
H           -1.78246572488569        3.11764649490968       -1.27144204972487
H           -3.48232701007950        3.23352418639995       -0.90754573851664
C           -1.30155366992157        0.91263047359986       -0.02940976702089
C           -0.16259974198812        1.69125591185650        0.00734524025401
H           -0.24338106704948        2.76820009123619        0.06957239375267
H           -4.83278490601380       -0.00327699123901        1.55186073613135
N           -2.33548581739117       -2.55323940750298       -0.76277589523343
H           -3.21351886923435       -3.03401170350198       -0.86616766302685
H           -1.57660406324685       -2.77346398227986       -1.38462022590444
H            2.64200335229558        2.68045634149362        0.24409677123216
