35
 energy: -56.696203638652 gnorm: 0.000667870397 xtb: 6.6.1 (8d0f1dd)
N           -5.77496826231980       -0.52189848152676        0.46017934885556
C           -4.62740109071780       -0.48562091650435        0.36671161122704
C           -3.24226972421779       -0.38627741173386        0.25488031742434
C           -2.30243833326617       -1.42099924786204        0.52175664667581
C           -1.03901426591262       -0.90748540731634        0.31696208118292
C           -1.17469996119690        0.47214206250222       -0.10213171758835
C           -2.55935504349271        0.77196621201034       -0.12845564409388
N           -3.13155477328278        2.00749950273718       -0.48514053472509
H           -2.84984365852282        2.76186673104874        0.13261978636084
H           -4.14412929595167        1.94132522723465       -0.48964524780742
C           -0.06468321476195        1.24698524324795       -0.38655413290164
N           -0.25500064789630        2.54031552449138       -0.85245973398914
H           -1.19826476182294        2.68030087553309       -1.19449845436726
H            0.45559502388839        2.86845929349757       -1.49110012269240
C            1.23858519483119        0.72370771079299       -0.09429328092367
C            2.26180407615271        1.59067712685101        0.30648830721162
N            2.03046079843332        2.94172904751193        0.38695614306527
H            1.07141220252455        3.25308153968844        0.43869582293933
H            2.69607952975922        3.47238902134559        0.92500916543310
C            3.57593355228078        1.23175152821782        0.72853736298720
C            4.28930818949409        0.10367049312648        0.46364132031792
C            3.86642683477391       -1.03848693046821       -0.22235954497674
C            2.56738152083000       -1.41168642928865       -0.48010450900328
N            2.37298340759613       -2.51290247834437       -1.25008361351745
H            3.16094274600650       -3.08094183386449       -1.50661887210333
H            1.44999826156258       -2.90974372963097       -1.31403311330967
C            1.35427071525652       -0.74385793235271       -0.02936324020594
C            0.24075629279519       -1.50889741487143        0.26518013367427
N            0.31168009921118       -2.90542751379400        0.42719954665542
H           -0.53437102432384       -3.27216226248978        0.83928185054325
H            1.13074877421064       -3.21779488650297        0.93158446147932
H            4.64022291847441       -1.72154844960573       -0.55036826758054
H            5.32733423508062        0.10711285594897        0.77411754022582
H            4.10840369600800        2.02320381256840        1.24346894675276
H           -2.57959138928301       -2.41688652779798        0.81823158017491
