28
 energy: -51.471217179377 gnorm: 0.000902647766 xtb: 6.6.1 (8d0f1dd)
N           -2.76033468527744       -3.70569097452907       -0.20304678365629
C           -2.57230849680403       -2.57370469467335       -0.17252374187279
C           -2.40026345229449       -1.16781839657532       -0.13146357815785
C           -3.58459873365540       -0.46150949821190       -0.42390865633211
C           -3.83166749666026        0.87646511612414       -0.30191274539044
C           -2.89409830201509        1.85216626944984        0.13981183088227
N           -1.58915107444182        1.76304649022515        0.11674235474463
C           -0.74555222415173        0.75988114622597       -0.01267079781509
N            0.50668227886887        1.15119939006442       -0.18483767698351
C            1.47953675043417        0.26532313867994       -0.08464032252488
C            1.24888266837024       -1.15949281512636        0.26761017676882
C            2.48627609182890       -1.78023093550824        0.37954434728193
C            3.47318841955186       -0.82513696149859        0.09678029063821
N            4.79847789329709       -1.01541242889298        0.08704444031396
H            5.41104416854623       -0.24819202986207       -0.13373689477458
H            5.19047181633576       -1.91607563100898        0.29756772947322
C            2.85337152539669        0.44499755978740       -0.19734262243021
C            3.57456701157486        1.59208043618375       -0.51153477717157
N            4.24498047944028        2.49320054945564       -0.76444034318127
H            2.66593673482534       -2.80907850887349        0.62805890693756
C           -0.05988232886320       -1.59542434309040        0.33429458232202
C           -1.09971440848469       -0.68777184524263        0.10731185930749
H           -0.28434654122140       -2.64095497332236        0.49961169707943
N           -3.37060112367244        3.04528723183323        0.56614230503184
H           -2.69854320200910        3.76704613308882        0.76063973866989
H           -4.33878658204649        3.28645586893973        0.46286826672446
H           -4.82973560217137        1.22894603942633       -0.52543162338108
H           -4.41759612640136       -1.08398117176909       -0.73074062590402
