28
 energy: -50.681646866200 gnorm: 0.000652313336 xtb: 6.6.1 (8d0f1dd)
N            1.12345320243562        3.59891934205028        0.00246768566207
C            1.21309403448670        2.45345424796626        0.01333518397927
C            1.47700021461293        1.05871010884035        0.01390905505459
C            2.84746384305092        0.70568206114213        0.00810582570873
C            3.36817185529468       -0.58622484297523       -0.00457845781852
C            2.71183305775308       -1.81379969969273       -0.01825761935358
N            3.50150487633364       -2.93124702653936       -0.08491059065876
H            3.08549984579803       -3.82962027168699        0.08624590209020
H            4.48552804868133       -2.84586090653753        0.09904845472477
C            1.32906941522837       -2.03981083799825       -0.02011550217897
C            0.23617381940206       -1.18401337805941       -0.00461485290148
C           -1.03901980716066       -1.78843205232198       -0.00799736912816
C           -2.15241926381543       -0.99323927912157        0.00832977430552
C           -1.97223320861906        0.48096541205114        0.02905642139242
N           -3.16563529521437        1.04717455064060        0.04549187043075
C           -4.01512825598688       -0.01754824819950        0.03437121426040
N           -5.33546305869653        0.16862991106701        0.04648979481935
H           -5.94774656410353       -0.62615485058713        0.03379933667156
H           -5.69110034528053        1.10695768230364        0.06025679719659
N           -3.46744728284473       -1.24656832365160        0.01250348219859
N           -0.78646220637008        1.05747754470757        0.03022097117997
C            0.29857833119543        0.28681044440532        0.01464534360424
H           -1.12287172258065       -2.86629964277264       -0.02358431415088
H            1.06022834323688       -3.09209682415013       -0.03766278570962
H            4.45146786696927       -0.64150059947492       -0.00614182884314
N            3.74757164437315        1.72572630771956        0.05384409593796
H            3.42601149169887        2.67511917563250       -0.02884670778365
H            4.72480809272155        1.53803724284264       -0.07842480379017
