30
 energy: -50.917102873304 gnorm: 0.000824392983 xtb: 6.6.1 (8d0f1dd)
N            6.45526238786689        0.78066347056642       -0.25553542793361
C            5.32336724204468        0.59238664749963       -0.18831673563218
C            3.94486738554763        0.36258711100281       -0.10015735396621
C            2.96306989509065        1.37149777983340       -0.02365607937886
C            1.72889502033369        0.73811995030322        0.07126418421593
C            1.96373530125275       -0.70174067220632        0.03742294374925
C            3.34000405937837       -0.90426381423940       -0.07375280241604
H            3.85473236356082       -1.84580928197599       -0.12094983766342
C            0.88224594228576       -1.55826637143982        0.07909474543010
C           -0.43951927307631       -1.09801099758750        0.13762928473762
C           -1.46255121183412       -2.09589503100477        0.12081912585615
C           -2.76526328670470       -1.95119768457374       -0.39657920385439
C           -3.48471371241163       -0.80781460517758       -0.60470973924336
C           -3.17665588555300        0.49012846968506       -0.18461223356938
C           -4.23598768975295        1.41656169455801       -0.26059495348709
N           -5.09203842305601        2.18272231527361       -0.31536375445061
C           -1.95513220336322        0.96653138022045        0.34481729530677
N           -2.00533351037450        2.16740397206244        0.95318331328760
H           -2.86654046405172        2.68969201285225        0.96076432487668
H           -1.17974694883213        2.58319139323370        1.34526647799335
C           -0.67152112890875        0.33978840055758        0.20225252149796
C            0.42768457021932        1.19996088430703        0.16737381718678
H            0.27610702467893        2.27047086770225        0.13279199350827
H           -4.47112765504073       -0.92676310476713       -1.03584442943583
H           -3.27015055254384       -2.88212087296384       -0.62416792429466
N           -1.14814979702202       -3.34600023906046        0.52247796307110
H           -1.82118471373607       -4.08604069959417        0.43087126645737
H           -0.26045705224705       -3.55254058040266        0.94222924900487
H            1.08297518974348       -2.61509304603349       -0.03171594868957
H            3.15205139170521        2.42877018296912       -0.02975696266422
