26
 energy: -43.219668693395 gnorm: 0.000537272390 xtb: 6.6.1 (8d0f1dd)
N           -0.86319836946008       -3.94600422568994        0.35704475817814
C           -1.03609201523292       -2.81583624595195        0.24731299215988
C           -1.31226630179219       -1.43514017916049        0.10799766870429
C           -2.65356906771307       -1.12633203144674        0.19600348768346
C           -3.27550635504824        0.11521393014921        0.04854309673451
C           -2.64131488723447        1.33912814619250       -0.11945905756051
N           -1.34890543084591        1.63403284822028        0.09683311814801
C           -0.28914769923051        0.88762476289271        0.15709163642932
C            0.91356834202428        1.64061982250463        0.38366141456048
C            2.12768669726822        1.07617385867353        0.18892507709513
C            2.23898090650247       -0.33898590055546       -0.18630619344590
C            3.56998190296205       -0.61472875721158       -0.34917099698652
C            4.31351163312147        0.58825060815106       -0.08281359790081
C            3.46626793545593        1.60107136660576        0.23982347280758
H            3.72033353290507        2.61362444257902        0.48882640333354
H            5.38628655327267        0.65192991931744       -0.13668814534439
H            4.00498345211815       -1.55721634354562       -0.62482415374657
C            1.07197796506886       -1.12035870226753       -0.24761391725655
C           -0.16865045738319       -0.56876814405537       -0.04754357521777
H            1.16391915829718       -2.18219756563332       -0.42913695916238
H            0.79284889831590        2.68804674876065        0.61791678464708
N           -3.37328695047231        2.43460024717277       -0.45637617766765
H           -4.37568283176051        2.39495383541415       -0.47339864049744
H           -2.91946909631223        3.32991667404459       -0.41630288644548
H           -4.35737608205526        0.12334652444782        0.05534943249028
H           -3.31836125267115       -1.96776399930818        0.35333603256017
