30
 energy: -56.513958155079 gnorm: 0.000551237271 xtb: 6.6.1 (8d0f1dd)
N           -2.05165239844228       -4.15420448993553       -0.00220562155928
C           -2.07620571620171       -3.00794055809715       -0.00199950796008
C           -2.21885439826106       -1.59254681828854       -0.00006246121231
C           -3.55875782813884       -1.21762267496379        0.00048318458360
C           -4.13074788250496        0.04116733731776        0.00191876170385
C           -3.48802460755591        1.27900648350106        0.00308372608421
N           -4.25647306529346        2.39490598726122        0.00482156365513
H           -5.25799251968475        2.32665919841325        0.00414106865363
H           -3.83846671723568        3.30808909331455        0.00472432341761
C           -2.09011511099857        1.48871901912963        0.00282125276441
C           -0.99932992337377        0.64378203357951        0.00168286557736
C           -1.02270952574746       -0.82552019428809        0.00049086256084
C            0.18120988379796       -1.53146007124451       -0.00030288078439
C            1.40235601888027       -0.88510391866695       -0.00001695085543
C            1.45555565271727        0.57570662407042        0.00099419605126
C            2.82622847105332        0.94858037808194        0.00090722887774
C            3.34357807596977        2.24833716154035        0.00158709329759
N            3.79528204794138        3.30426232195133        0.00218477211797
C            3.58165677763647       -0.22373284284296       -0.00007665318342
C            2.72674189305774       -1.34934703540551       -0.00067959934566
C            3.12928018335170       -2.68703946749207       -0.00187738555631
N            3.45171354841737       -3.78975359129244       -0.00205185227120
H            4.65615261734242       -0.26782497701477       -0.00043240217640
C            0.28063069168518        1.29844748417535        0.00177247512447
C            0.34506956143310        2.71050314996480        0.00254886803202
N            0.37507828491217        3.85767870007393        0.00350064637198
H            0.16431313531288       -2.61197607892068       -0.00116995911475
H           -1.83073538070755        2.54324247075189        0.00369010059551
H           -5.21304695890070        0.07117728082485        0.00216383642727
H           -4.25844459796226       -2.04518670299883       -0.00031458707720
