32
 energy: -53.547037063726 gnorm: 0.000567455843 xtb: 6.6.1 (8d0f1dd)
N            5.90590882889493        0.47870301324829       -0.00504581950945
C            4.75475517716667        0.45746310626593       -0.02636681431475
C            3.36302088590379        0.37738239849367       -0.03312645189489
C            2.46226817820382        1.45488503545818       -0.09259093790202
C            1.17072445374584        0.93211550337834       -0.04049096617166
C            1.27415096573091       -0.51113314204289        0.01716905186889
C            2.63840111742199       -0.83528079211867        0.03718774353369
N            3.20186349251176       -2.11686876427467        0.08264244727386
H            2.85459774109033       -2.67822886328410        0.85166375395482
H            4.21433825558683       -2.07253695320220        0.10851299656090
C            0.13416965537055       -1.32021132790764       -0.05607324826422
N            0.33121347268243       -2.67914262502425       -0.16152487785327
H           -0.39709662459955       -3.22992564813149       -0.58523459991031
H            1.26211136299750       -2.92435070593852       -0.46766310857898
C           -1.15010904533757       -0.72584002095663       -0.00990705408923
C           -2.25582066260470       -1.56921246235845        0.08332065639547
C           -3.61676394294526       -1.32851185624090        0.09964419866454
C           -4.25514753709659       -0.07890303275337        0.03033453771614
N           -3.72639676220609        1.12662849194484        0.22705853802874
C           -2.44822908721093        1.43527426138272        0.28729416087445
C           -1.25728646945361        0.75825790723003        0.03376841532933
C           -0.08481652306699        1.54884107736163       -0.05965426179397
N           -0.13475103069912        2.91783457345774       -0.13110891167924
H            0.74232068462954        3.36918424708574       -0.32798612015103
H           -0.94641830292830        3.36166243497541       -0.52257266561708
H           -2.33544777120711        2.47876614811379        0.57401017933332
N           -5.58708397745662       -0.04906709003141       -0.19176873518618
H           -6.05048264628047        0.84238954377272       -0.17850454618608
H           -6.12421432383547       -0.89300945829187       -0.26888104907628
H           -4.26738124845699       -2.19331471387208        0.11957764854880
H           -2.02150724871239       -2.62475619084669        0.14920318485699
H            2.75668805936119        2.48753422870684       -0.14290210086153
