31
 energy: -49.826701910713 gnorm: 0.000950005952 xtb: 6.6.1 (8d0f1dd)
N            6.02432520447539        0.16555864486354        0.08360200713891
C            4.87434431015257        0.17002653614663        0.05196377924196
C            3.47694749750247        0.16860758543162        0.01375560720523
C            2.66593024542769        1.30805438922803       -0.09780335990952
C            1.34157484297033        0.87164343118922       -0.11501681487336
C            1.34579826949840       -0.57419834408597        0.00263978411398
C            2.67245544117057       -0.98666280363904        0.09216045424298
H            3.05641599162753       -1.98826730431103        0.17563206145345
C            0.13022495170523       -1.26438674330560        0.04120575907229
N            0.19368563466952       -2.65819391971307        0.20938705165108
H           -0.50452764702254       -3.03779024914030        0.83422597856643
H            1.12322673037433       -2.94637893221519        0.48148766606202
C           -1.09626925964984       -0.58198270208257       -0.07634833917398
C           -2.29005772374540       -1.36490374355980       -0.25800159110142
N           -2.16884204960555       -2.54328791299779       -0.91019753353796
H           -1.26269705783801       -2.86067934942713       -1.21379297788310
H           -2.96365992370279       -3.15154776091498       -0.99768452054697
C           -3.56760031207633       -1.07333999865922        0.22742196335966
C           -4.06063002812314        0.13542327404396        0.67600250348443
C           -3.50369634958349        1.38107735037137        0.49906408559858
C           -2.25943408045988        1.70861026219688       -0.06063850668126
N           -2.14988823747998        2.99511819800518       -0.47266625771100
H           -2.94166921301563        3.60804709008405       -0.39569909561887
H           -1.34112792938070        3.31779631106766       -0.97011834455017
C           -1.09072423889157        0.88129266452607       -0.10912835459782
C            0.13371089034952        1.54694226968162       -0.15133553654935
H            0.17536269452569        2.62573073577748       -0.10818657386741
H           -4.13628156594802        2.22784779031001        0.73693628386481
H           -5.05643230386764        0.11485250664864        1.10058937354434
H           -4.26417156567432       -1.90338904467505        0.21994728676800
H            3.01329947561413        2.32205748195477       -0.16941526416524
