31
 energy: -53.851995856271 gnorm: 0.000918304267 xtb: 6.6.1 (8d0f1dd)
N            5.94710822299322        0.73387737014389        0.55049485548092
C            4.80161669168985        0.65974216610291        0.45635996413823
C            3.42219990310847        0.52123215791710        0.31029540036276
C            2.45093283509611        1.54395640159055        0.46442721035798
C            1.21165136865613        0.99427284182738        0.19896135988000
C            1.39141413727703       -0.41472172277506       -0.09658354265469
C            2.78356215167315       -0.67576743800801       -0.04602551520720
N            3.40504376235700       -1.90760430065810       -0.27097354805727
H            4.41304844878158       -1.83453096130549       -0.18814729073150
H            3.15112589753676       -2.33204078858970       -1.15584342504048
C            0.30526519869313       -1.26178137484025       -0.25961242031095
N            0.53796904077605       -2.60051504243888       -0.40517824716765
H           -0.21271723037108       -3.24619354336055       -0.23389819732680
H            1.44928309192849       -2.90394869609096       -0.09536091753539
C           -1.02420217727828       -0.71443675214293       -0.21994829740140
C           -2.11314159635897       -1.57060952271939       -0.32343109628898
N           -3.37593115181938       -1.41435363589355        0.04606822430553
C           -3.94201061368140       -0.27087856035615        0.37723112316673
N           -3.64198956535512        0.95249643044373       -0.07416950553302
C           -2.44491777128182        1.36423030142462       -0.39744966761484
N           -2.40500341815517        2.54884877877033       -1.03081434272975
H           -1.53205487114288        2.95789437666127       -1.31122603052598
H           -3.27221080155282        3.01340772711829       -1.23759558961941
C           -1.16547366145990        0.73752757097460       -0.09533149868091
C           -0.07541059868420        1.54055925110089        0.13061348316626
H           -0.19881075213172        2.60508502439570        0.27853692152482
N           -5.05986694998305       -0.35285695712689        1.12581044447741
H           -5.43497120370177       -1.26129551005338        1.33166388433505
H           -5.62514751209077        0.46774632075210        1.24737257226261
H           -1.93682141079953       -2.58803201172557       -0.66036708885999
H            2.66544776138005        2.56219667066086        0.73108355552755
