26
 energy: -52.028408430820 gnorm: 0.000807620196 xtb: 6.6.1 (8d0f1dd)
N            0.96178862899845        3.83988529015720       -0.59278221738144
C            1.32581794582197        2.77134382714435       -0.38871450625077
C            1.82744958638032        1.47257559495224       -0.13257435360831
C            3.21523486390205        1.33268742957666       -0.25323530631715
C            3.98760615077751        0.21432918603642       -0.07265105279492
C            3.50344299672587       -1.10039535518702        0.16020612092331
N            2.28554114480341       -1.53835248063407       -0.06790898965397
C            1.11766244916502       -0.95128562827556       -0.11533463686897
N            0.10071071175745       -1.74840518761214       -0.45386839227410
C           -1.12427738335883       -1.29547407050892       -0.43130777719005
N           -2.25151508893659       -1.97464564283703       -0.57835557578573
C           -3.24487497708587       -1.14593036030336       -0.20183855187507
N           -4.51964066966549       -1.52702430002734       -0.25112415779695
H           -4.73934187191526       -2.44234757664742       -0.60421816940468
H           -5.24704095365248       -0.91417154299327        0.07538843092530
C           -2.77213768288596        0.12046420614458        0.28662733060310
C           -3.58295647042823        1.11842772971399        0.81735273324681
N           -4.30981426237292        1.89759348188172        1.24996490618591
C           -1.39849858014571        0.08681780642092        0.06885983857201
N           -0.39902100797641        0.89794006503514        0.29669360296166
C            0.84177167903603        0.48424156142984        0.12593725708069
N            4.38271844507608       -2.05340877026412        0.52936203207814
H            4.05370271454715       -3.00214687366324        0.58425801954094
H            5.36657341504321       -1.86192067207811        0.58465587992135
H            5.05988063178327        0.32292255215248       -0.16004921789306
H            3.73991203250458        2.25086468548489       -0.49161655134671
