33
 energy: -58.883690838793 gnorm: 0.000621207450 xtb: 6.6.1 (8d0f1dd)
N           -3.93299291340763       -3.65465811883317       -0.32419726653808
C           -3.33043476813929       -2.68066168177359       -0.21781435291706
C           -2.60617922387495       -1.47893488536358       -0.08405546848357
C           -1.24078662217231       -1.63132843557308        0.18083609180936
C           -0.19673838209735       -0.72335877744827        0.21122349807259
C            1.09638070160987       -1.30312700796061        0.30731092954617
C            2.22776869160139       -0.56151067250501        0.15006227301453
C            2.11990650778723        0.87033108274080       -0.12700348590997
C            3.39662709476100        1.36583807102152       -0.32244186738355
C            4.31404836917664        0.29525311364881       -0.15654346957596
C            5.70491345091114        0.38596113022773       -0.24061424440162
N            6.85339444178364        0.43038421933364       -0.28715162427342
C            3.61529827157182       -0.88783694822669        0.13444126396030
N            4.16015652327048       -2.12825887591844        0.29354921202794
H            5.15560963798292       -2.17627102161748        0.43830260086763
H            3.60791413192070       -2.83152905558420        0.75336205713283
H            3.67306493266594        2.37876657099652       -0.54854724319489
C            0.86421718415344        1.46392334028424       -0.10952941271654
C           -0.29841514282300        0.73047800793394        0.10171050278922
C           -1.52425265235308        1.45802568978119        0.27702660933130
N           -1.41117131923346        2.74422731801294        0.66577870338111
H           -2.23163794502894        3.32033501296683        0.75755772562015
H           -0.51644248185257        3.13480397700142        0.89795189326934
C           -2.84796016525305        1.01486749876224        0.05533460576951
C           -3.83993935567984        2.01208724878344        0.11960614924493
N           -4.65847138142472        2.82168834135925        0.16971170117265
C           -3.34541040262207       -0.28598232404488       -0.22042120795396
N           -4.64540119248703       -0.39382173978107       -0.56075134270095
H           -5.23565705045442        0.42034928575126       -0.59667900927081
H           -5.05714943757923       -1.30482879305698       -0.67929333355418
H            0.81731237380903        2.52460927236678       -0.31578613692989
H            1.15765993571241       -2.37366405006684        0.45317094934393
H           -0.94729157003661       -2.66909785801699        0.30074725535092
