29
 energy: -46.392578037014 gnorm: 0.000770788967 xtb: 6.6.1 (8d0f1dd)
N            4.54664573218002        2.14759339582934       -0.28116759668277
C            3.65007665720588        1.43227322257834       -0.18104930526630
C            2.57116640467703        0.53631552425819       -0.06401863195784
C            2.91112332689819       -0.84360059845541        0.07600200700667
C            1.99314449672175       -1.87993451801802        0.20994489070226
C            0.60621085913734       -1.85612688795053        0.14889027905091
C           -0.32603144792634       -0.83870475501029        0.00271437901947
C            0.01463256944008        0.59846625439795        0.01128780858818
C            1.30796375245170        1.11466492925337       -0.04472442563471
H            1.34251101162626        2.19975239550147       -0.08824476155307
C           -1.01270206800918        1.54625905346125        0.06839808290481
C           -2.33945409873522        1.17238640439455        0.08806462518490
C           -2.69416185510484       -0.23732257669564       -0.01273028870177
C           -4.09265537363491       -0.30590996783262       -0.03444559555827
C           -4.58838170888901        0.99525439056694        0.05941406043230
C           -3.53471087116940        1.90103782411519        0.12743761707568
H           -3.61882138758513        2.96968937109298        0.19580631498360
H           -5.63258705438063        1.25591039102872        0.06973378283633
H           -4.69891506589504       -1.19277800809058       -0.09597040203631
C           -1.70136284055988       -1.21019921968762       -0.09204016192734
N           -2.08371007248676       -2.52873738797631       -0.19955927966706
H           -1.48749451776368       -3.16466705484519       -0.70141665930175
H           -3.06683337156024       -2.65989563980830       -0.37376719643824
H           -0.75526069765734        2.59639712874406        0.09205864853835
H            0.17772194708728       -2.84425905617961        0.26555123546194
H            2.43480773699913       -2.85921558803384        0.35448150759618
N            4.22674950636404       -1.15278651674039        0.09225541397898
H            4.92017611633521       -0.42783712530518        0.01684077630826
H            4.52419464463379       -2.10318622799320        0.22119162185689
