25
 energy: -47.514599365914 gnorm: 0.000383704061 xtb: 6.6.1 (8d0f1dd)
N           -1.19524979677147       -3.86801478182916       -0.27155169409815
C           -1.34106163952052       -2.73693507288848       -0.15027721883230
C           -1.61962620326033       -1.35442745798567        0.00116015337918
C           -2.97776325028394       -1.04080036142878        0.06099227479192
C           -3.60043580530097        0.18159405118362        0.11702080791949
C           -3.01611373152615        1.46078517398538        0.02731374807873
N           -3.86444307894654        2.51959585214017       -0.00476506415055
H           -3.50713615314505        3.45404215755208       -0.08408514375112
H           -4.85797961638305        2.38291077283120        0.02812725146817
C           -1.65314826745664        1.74399300713456       -0.05234210893378
C           -0.51419634840394        0.94017802869752        0.03577065877369
N            0.62781239105772        1.64455902767544       -0.03081168752814
C            1.76007151705471        0.99464915949175       -0.09500473934850
N            3.00920028859200        1.43302739855508       -0.05311640272430
C            3.73749643057707        0.29559408411273        0.02204609543200
N            5.06701888879045        0.31947834363919        0.06097443556881
H            5.56682008978196       -0.54566595723004        0.15953558389866
H            5.54277685952380        1.20294936478391        0.03232545237462
N            3.05290257641246       -0.87230840694956        0.11330982371830
C            1.79196537725745       -0.49760197345017        0.00056508368430
N            0.67948931660076       -1.18065618770951        0.10174939892060
C           -0.47779778214727       -0.52003815514511        0.08351921512087
H           -1.39991584225652        2.78776572229082       -0.20184312016576
H           -4.68134248214475        0.16770636682428        0.18142964969585
H           -3.63388221550169       -1.90405978078100        0.05458334500757
