31
 energy: -49.829302081940 gnorm: 0.000588279050 xtb: 6.6.1 (8d0f1dd)
N           -5.93158749525724       -0.21823363683001        0.12662360663799
C           -4.78144901471534       -0.20922984642373        0.07189525963097
C           -3.38839629091193       -0.16602880731697        0.02746888274064
C           -2.52685486760319       -1.27188057831391       -0.02964695409924
C           -1.21368632380418       -0.78843889960330       -0.02823385685086
C           -1.27721011947749        0.66769912847960        0.01792175476876
C           -2.62564034461599        1.03244544454672        0.05145733991826
N           -3.15217452501183        2.31038929250356        0.02241614996498
H           -4.11538508411551        2.37577586633874        0.31673888804641
H           -2.56022755398813        3.02851915570051        0.41032186218140
C           -0.10375746049560        1.40599799900791       -0.03948969944373
C            1.14051750744471        0.79457204873161       -0.07071727550797
C            2.25036024264264        1.65963850764305       -0.17070702812178
C            3.60110135481000        1.46081854698120       -0.16180192798125
C            4.31532955034191        0.25159067789148        0.03689903356707
N            5.66815670406744        0.34690167458436        0.04985056545072
H            6.11510293787357        1.24439937082009       -0.00224066474720
H            6.23187895778562       -0.45630031388718        0.26326902812162
C            3.74962304987315       -1.00294042416109        0.21545164511645
C            2.40925205965237       -1.38283666148057        0.16120034809250
C            1.23030233451142       -0.68000282053603       -0.01570434048009
C            0.01571720301076       -1.43528079773088       -0.08462911919280
N            0.02953404691749       -2.81050712982198       -0.14321940088433
H            0.78997332059006       -3.26336183938886       -0.62100897916864
H           -0.87101056681932       -3.22817928226310       -0.31133179665230
H            2.28396159204161       -2.44764148771334        0.31605582998262
H            4.45324242790778       -1.80787666660156        0.39364736584247
H            4.22104794354082        2.34149787515392       -0.27984249974699
H            1.96271250641871        2.70096071458916       -0.27685930928840
H           -0.15819375876077        2.48604480509933       -0.07433826860430
H           -2.85574925295375       -2.29543520619944       -0.04788492189325
