31
 energy: -54.646448746895 gnorm: 0.000755756703 xtb: 6.6.1 (8d0f1dd)
N           -6.57216905163628       -0.84496346304669        0.49231155928094
C           -5.44369836381679       -0.65081317169248        0.39061840377469
C           -4.07097547001543       -0.41254297369878        0.26117858246935
C           -3.49357230106369        0.81386238938766       -0.06895095984820
C           -2.09833422656239        0.63042779911353       -0.09827700945307
C           -1.83935651580229       -0.76062521680592        0.20989841621116
C           -3.05553697181101       -1.38476086151006        0.43166463398862
H           -3.21917237224674       -2.41742427487455        0.67774688590946
C           -0.53193813769430       -1.25165476455548        0.12985040451790
C            0.52900229063913       -0.40583043777442       -0.10264073732051
C            1.81787760949891       -0.99479922273274       -0.39698335791641
N            1.80002293324721       -2.22450325824605       -0.94870148134032
H            0.93036955690723       -2.65737171073916       -1.20419994934966
H            2.66449152950238       -2.70253074588289       -1.14308807218320
C            3.07186055592702       -0.44614637119879       -0.11714538087137
C            4.20959643029846       -1.22958769839791       -0.35996281616838
N            5.15581711230652       -1.85707156788613       -0.55680632206687
C            3.30366054483171        0.83186416696885        0.49858309074217
N            2.54525785597802        1.89437136170673        0.40471676846066
C            1.30598907825387        1.98382732328728       -0.05207027869831
C            0.30515948379517        1.03952981910259       -0.19002282970709
C           -1.04947245204962        1.50970347590170       -0.34308512259745
N           -1.33048199082598        2.80863641332607       -0.62108275774026
H           -2.29762096094985        3.04680344842981       -0.75318961285625
H           -0.64770798354110        3.41658204959082       -1.03393937582137
H            1.03990328453158        3.02635556456996       -0.19395125736274
N            4.46415508095810        1.00493978834814        1.16083263667119
H            5.16900743522834        0.28819919256640        1.16700252542251
H            4.67761991244758        1.92261613692190        1.51081588671013
H           -0.37385445692907       -2.31071622379919        0.28158767589210
H           -4.04088750960491        1.72197860381993       -0.24792549804997
