25
 energy: -48.293661411573 gnorm: 0.000723097496 xtb: 6.6.1 (8d0f1dd)
N           -2.46230017174025       -3.57391716092957       -0.36233396994992
C           -2.27556084415397       -2.45441458395820       -0.19913733683777
C           -2.12462180856955       -1.05988139704825        0.00507571093725
C           -3.32203960164248       -0.34485789385069        0.07954903661275
C           -3.54154002150460        1.00778299521588        0.14697043636409
C           -2.60050193400548        2.05499859703531        0.02498007211076
N           -3.09521302526470        3.31407969187247       -0.03800573604293
H           -4.08174250784601        3.48302112839550        0.03819086480708
H           -2.47690717470398        4.10161362193564       -0.11237752351699
C           -1.21737920603549        1.91290795283650       -0.06765851313941
C           -0.38163336390062        0.79701827437641        0.04754838880703
N            0.92164017429677        1.08631811222477        0.00897061835392
C            1.81441382283557        0.14616167258429       -0.10196739744441
C            1.39772311253221       -1.28465514433057        0.00578466173595
N            2.46597978328399       -2.05610317204761        0.12892851406136
C            3.53553845339267       -1.26035630244482        0.07024633286105
C            3.21798964103994        0.10842412689156        0.00386564291082
C            4.09690623975134        1.19195191054777       -0.03817910564046
N            4.82183288467925        2.08260270313533       -0.06314956924893
H            4.52306205847972       -1.68476144011121        0.10014516735094
N            0.13494497718479       -1.56248204169505        0.15921282920403
C           -0.78615022169343       -0.60695462267645        0.10928128215596
H           -0.66275260164789        2.82438817565642       -0.25957515584201
H           -4.57430737855593        1.32225948766901        0.22867394694865
H           -4.20958344191112       -0.96739739028497        0.07433445754186
