27
 energy: -51.756057024330 gnorm: 0.000748150507 xtb: 6.6.1 (8d0f1dd)
N           -2.68428762169436       -3.70412715784828        0.05774419355107
C           -2.50323272603726       -2.57132692655034        0.07626109741986
C           -2.35049849852856       -1.16179647548804        0.09703990117955
C           -3.54141943619563       -0.48667781487821        0.47234160929731
C           -3.82830992034047        0.83693281365432        0.37783006997148
C           -2.93505312839018        1.83375346722637       -0.14081926843064
N           -1.63662039709380        1.78035137050470       -0.15663223684773
C           -0.75530142304378        0.80341254814426       -0.00268049987229
N            0.47529095677399        1.22748378349110        0.19353879925357
C            1.47040501267033        0.35505944845357        0.09997012836661
C            1.27234553488750       -1.05712092683614       -0.29825856497899
N            2.45021677017911       -1.69925659969107       -0.42274857413210
C            3.38418205017781       -0.80540526098634       -0.10878533063482
N            4.68365077825068       -1.09912328075341       -0.11547453505836
H            4.97120126517511       -2.02796504299011       -0.37124537587496
H            5.36504714378689       -0.39996887444479        0.12548938415964
C            2.84053942515527        0.50116872528107        0.23584384731476
C            3.62064114567736        1.59331900965414        0.59242551755325
N            4.33694926772579        2.44751774703873        0.87947543144252
C           -0.00780193774147       -1.53130527350929       -0.40687504832074
C           -1.07515971687303       -0.64570732709150       -0.14812979529230
H           -0.19851899371842       -2.57483890062741       -0.61154121554481
N           -3.47580749429235        2.98434649495575       -0.59604772147999
H           -2.84601523481844        3.71743428481699       -0.87399833158107
H           -4.45438442397472        3.18155454977805       -0.49229940928924
H           -4.81362351217199        1.17229504978838        0.67255533450869
H           -4.33285463624575       -1.13867542269322        0.82523578641955
