32
 energy: -53.543472661573 gnorm: 0.000507529232 xtb: 6.6.1 (8d0f1dd)
N           -4.89093046001229       -2.23464086591693       -0.44458371803098
C           -3.97786644155306       -1.54733027536200       -0.29894640562134
C           -2.88402992329617       -0.68279589407823       -0.12752567608338
C           -3.17316131589819        0.71448625552276       -0.09546366945961
C           -2.25254645705610        1.70908044237788        0.17355720065118
C           -0.84997905199259        1.69521473368820        0.27661289563435
N           -0.33070097908700        2.91540279760153        0.60229570072091
H           -0.96308350412765        3.62289392808306        0.93498747120269
H            0.62467525351795        2.96545279580861        0.91684458184764
C            0.06091313357178        0.62758335915536        0.05928524586891
C           -0.34631571526341       -0.78820705845219        0.14645207354573
C           -1.64724055633850       -1.28326260999614        0.06475239059395
H           -1.70838898874859       -2.36596176253125        0.11294333532153
C            0.63630633715927       -1.78599105842474        0.26520448321277
C            1.97482302031525       -1.48223596134374        0.22045351398038
C            2.38115755943092       -0.10786487710300       -0.01287199598980
C            3.77988621619126       -0.16379472225500       -0.09989201947547
N            4.66765449174079        0.88965234351417       -0.33452712187423
H            5.61578354703543        0.53205788610229       -0.34382385483851
H            4.58366479432705        1.64291249714082        0.33878979325154
N            4.22969700056273       -1.42557092981028        0.05332143160884
C            3.17392671941478       -2.21696949135406        0.23335561988892
H            3.29935034806381       -3.27418763547688        0.37473304820180
C            1.43633013219278        0.90619715006591       -0.14799028515054
N            1.91464611903173        2.16687149895533       -0.49038700941539
H            1.29161520182337        2.72497607211320       -1.05694021297302
H            2.85056657279237        2.11433150349863       -0.87279238728115
H            0.32528626556501       -2.81802875189855        0.34727865100890
H           -2.69071854601966        2.69437543743956        0.30169028945419
N           -4.46704315176291        1.07219051844961       -0.26986158572417
H           -5.17012110163901        0.36578484759677       -0.40408308437135
H           -4.74652995963312        2.03389529069046       -0.20379623901129
