36
 energy: -61.229076902622 gnorm: 0.000906014160 xtb: 6.6.1 (8d0f1dd)
N           -3.92752192956975       -3.16007320305328       -1.10088983329930
C           -3.22049303686118       -2.31567076445557       -0.76357633267099
C           -2.37224564550324       -1.27807795420192       -0.34153273168145
C           -1.06380983448007       -1.67641375365383        0.01683601156188
C            0.08084898750967       -0.95805777874783        0.24307398666686
C            0.20870262529132        0.50192659756163        0.08114200510913
C           -0.87360308011492        1.37998875264548        0.38245805758504
N           -0.54098241703013        2.62647182862017        0.80796128953721
H            0.41321121445085        2.83076016390816        1.04714880811287
H           -1.26595285280585        3.25285852920874        1.11647914115801
C           -2.26198679334631        1.14133359064670        0.28113063364280
C           -3.10078651018237        2.20870769538641        0.63526796960454
N           -3.79725420559229        3.07930308018163        0.93458236058912
C           -2.94122547146344       -0.00576143191896       -0.22140337594359
N           -4.24514565492783        0.14527437052756       -0.54908075179334
H           -4.78865009328521       -0.66210778955511       -0.80464735174990
H           -4.71632465407896        1.01566957755184       -0.37048127992162
C            1.46553006472840        1.02976580546638       -0.25808723043573
N            1.63861485949290        2.34200955735893       -0.68977320073939
H            0.82131405976408        2.76594178996965       -1.10534132190718
H            2.46103015269823        2.44006497542359       -1.26846368393465
C            2.61045343383141        0.22298801147099       -0.16965077925734
C            2.50761682484353       -1.15079848360124        0.27255289301972
C            3.81889353443341       -1.67977482240709        0.31535050338590
C            4.69103159739766       -0.68795901951904       -0.07546519717515
C            3.97070030762696        0.49211001884895       -0.36131781006755
N            4.54621486537345        1.70016525401786       -0.77066079274248
H            4.23074461858114        2.50306794976059       -0.23988365008146
H            5.55733938831140        1.64873459703550       -0.76745773723679
H            5.76128640642936       -0.77890216844410       -0.14619925873243
H            4.09625503834771       -2.68204726702518        0.58871699929474
C            1.27378584001297       -1.72182234734269        0.51385347581074
N            1.18957640041032       -3.03059562871519        0.89770839143111
H            0.38101763264467       -3.34919523263894        1.40216961190592
H            2.05892161683429       -3.48006226430459        1.12707259534541
H           -0.95487806377224       -2.75455747150455        0.02206071140906
