26
 energy: -47.239433401664 gnorm: 0.000722404035 xtb: 6.6.1 (8d0f1dd)
N           -1.05593540877704       -3.84965916185886        0.00669611442049
C           -1.23688546477067       -2.71768062941146        0.00063551570263
C           -1.58446318120329       -1.33943515694485       -0.00698735980714
C           -2.95806371730147       -1.09573602723102       -0.00946000754768
C           -3.63534548278866        0.09890902647523       -0.00682002645795
C           -3.10621124902015        1.40048136001558       -0.00735371846139
N           -4.00601858954495        2.42640160320050       -0.04084526069510
H           -3.69163890534941        3.37021887465389        0.09749396056690
H           -4.98055630070982        2.23650163610686        0.10982850937152
C           -1.75421075895282        1.75069984614126       -0.01864973636093
C           -0.57436359077694        1.00798701796935       -0.02329693146013
C            0.62619816734228        1.74413446989034       -0.03609033322266
C            1.82057315590913        1.07083440547142       -0.03073688927073
N            3.09834311411998        1.46308982538646       -0.03588195991048
C            3.77727756273198        0.29860046414482       -0.01745729184779
N            5.10844345266154        0.25566311658779       -0.01411385162579
H            5.63116904112521        1.11223152302565       -0.03015704466663
H            5.56265965163310       -0.63940005855774       -0.00204180841570
N            3.04547713320905       -0.84900007326875       -0.00022215973442
C            1.79872968600821       -0.41355563915462       -0.00878767669095
N            0.68049566551180       -1.11310405722906       -0.00073576883403
C           -0.47610253465183       -0.46221609328259       -0.00991854528320
H            0.59814461611156        2.82491888688993       -0.04838054730749
H           -1.58587196650726        2.82445948901044       -0.02605546815401
H           -4.71683338172761        0.03760654273270       -0.00540256006872
H           -3.57283069508192       -1.98858756566337       -0.00854767573861
