37
 energy: -60.136675826353 gnorm: 0.000323043168 xtb: 6.6.1 (8d0f1dd)
N           -6.07879017162346       -0.47120337427962        0.41342217250438
C           -4.92906777400872       -0.45039898893668        0.33671178799863
C           -3.54204769795059       -0.36772553476182        0.24372887282764
C           -2.61877948095142       -1.40411641961986        0.52972691267081
C           -1.34552917209036       -0.90183426159216        0.32435952382291
C           -1.46713116738077        0.47223941774844       -0.10655492472210
C           -2.84135369036226        0.78469498379966       -0.14614801970942
N           -3.40762965624674        2.02256941143991       -0.51814444645843
H           -4.41946340672962        1.94773387394139       -0.55306032362774
H           -3.15599250914969        2.77010250952519        0.12149793340841
C           -0.33715398009167        1.24092564978755       -0.36032570173868
N           -0.52844088653939        2.54990855093850       -0.78854013605133
H           -1.46287124279713        2.68647888746421       -1.15427000102948
H            0.19683635759893        2.90930485297972       -1.39242319583818
C            0.95207665276795        0.69808726205526       -0.09865544837817
C            2.00896164868688        1.55993049871883        0.26417078558603
N            1.74048672574033        2.89498487552692        0.45310250580603
H            2.43478913819752        3.42086648740954        0.95747897984375
H            0.78098026157865        3.16353142724416        0.60995898939196
C            3.34913186122468        1.22812375863581        0.53466709143850
C            4.07142873813519        0.11280778686024        0.16281952891635
N            5.43486804170637        0.15879075393383        0.30714342653248
H            5.82620678344293        0.87981801276294        0.88817377929409
H            5.94690445234074       -0.70515960998794        0.26476344196723
C            3.54848694309886       -1.04028066727320       -0.44289484156608
C            2.23771906751151       -1.45872660273245       -0.49784887223838
N            2.04233162950143       -2.69083617739928       -1.05815568482291
H            1.10505657569476       -2.97056079173973       -1.29182979731820
H            2.79729976905013       -3.09527237115166       -1.58409203935737
C            1.05547624521358       -0.77490115885410       -0.02766072967623
C           -0.07645042579098       -1.51825182334818        0.29644478503215
N           -0.04123261169069       -2.89934672234378        0.51390207908285
H           -0.86976777041245       -3.23061288270969        0.98443067275422
H            0.80987898480351       -3.24429906371249        0.93270362459190
H            4.28356663792589       -1.72886524392980       -0.84446309549746
H            3.93349171153249        2.02644135623695        0.98069206596892
H           -2.90443640573622       -2.39565685373585        0.83298333119122
