28
 energy: -57.060263674688 gnorm: 0.000774157444 xtb: 6.6.1 (8d0f1dd)
N           -3.86537677864381       -3.30019088525730        0.81272750702246
C           -3.25842900550070       -2.35301700325575        0.57738255920228
C           -2.55741623828853       -1.18160870722666        0.28846787897837
C           -3.14867502856830        0.08245850040412        0.07623732064078
N           -4.44638859391000        0.37532619733520        0.12539527455713
H           -5.12311437016761       -0.34179940316118        0.33026908036407
H           -4.75879240397556        1.31866772412287       -0.04074632992300
C           -2.10594221943311        1.04082302365678       -0.21497559597925
C           -2.38065296670798        2.38445150652580       -0.47769866955637
N           -2.70741742056569        3.46630015088035       -0.68450033892515
C           -0.89144665736326        0.37280614735821       -0.16952597076404
C           -1.16150584539950       -1.03883828420172        0.13937414397579
C           -0.14549063960672       -1.96407434448942        0.12942675159113
C            1.16275390966377       -1.55500762230464       -0.17780939029591
N            2.00012243264323       -2.47004124881731       -0.60023604003845
C            3.28632577005404       -2.40918821095400       -0.81205578615087
N            4.15956145048868       -1.67884513659507       -0.15269297249717
C            3.89949868265337       -0.53799162254703        0.43131621567885
C            2.77170781496932        0.29247048139143        0.26868668328317
C            2.94439575518863        1.59318827442492        0.80842659405863
N            3.15748621398340        2.59836536625938        1.31631526261725
C            1.48229481888455       -0.09867987419002       -0.15916647239102
C            0.43661400600575        0.81897510461501       -0.29230800858062
C            0.68136952035175        2.18282784284868       -0.57007278150539
N            0.84409823269554        3.27455731293709       -0.87949255292179
H            4.70976406775632       -0.14908165329475        1.03959661945187
H            3.69640673609191       -3.16595976526220       -1.47077764797260
H           -0.34551325240275       -3.01973517800497        0.22770606628195
