36
 energy: -61.227206960028 gnorm: 0.000826825229 xtb: 6.6.1 (8d0f1dd)
N           -5.33542312009033       -2.27355408454831        0.66236770278073
C           -4.52117742449047       -1.48737380455709        0.43932408171470
C           -3.54819902032528       -0.51640730310548        0.16612707301721
C           -4.01989717281490        0.79857326634724       -0.10091306321901
C           -3.20694691415870        1.90628124915104       -0.33822046986413
C           -1.82732002361572        2.01516336499023       -0.24417880926666
C           -0.80231523729438        1.09864094603172       -0.05013936694860
C           -1.00331572285724       -0.37471404868417       -0.07490747835524
C           -2.22817127046729       -0.98718312852851        0.09081620812761
H           -2.18899844527060       -2.06330500670892        0.22628579607959
C            0.13594143544064       -1.22638022209388       -0.19331933397310
N            0.01746914422137       -2.57961412477231       -0.39359475701567
H           -0.82729840017441       -2.92193477985454       -0.82044389589740
H            0.86092338869248       -3.02284894024645       -0.72449125681414
C            1.41279082032972       -0.68620488146142       -0.07038665266506
C            1.60644355544285        0.75000417179706        0.03426896340211
C            2.98623901418411        0.99384390618805        0.05454140385361
N            3.62625564985572        2.23266599541554        0.12602298072441
H            3.31424066367089        2.89345802826683       -0.57551696316154
H            4.63454953314256        2.13465269830722        0.10064299958670
C            3.64347541100519       -0.26026850205729        0.02828459595374
C            5.02225848856648       -0.44498643251526        0.06027502271847
N            6.16419298832637       -0.59584192954406        0.08755401208482
C            2.68039558171260       -1.29157229901119       -0.03395783770156
N            2.96503385726312       -2.65559639047912       -0.08481661885349
H            3.95750749249742       -2.83730781317641        0.00184366322078
H            2.43875736556665       -3.20925006281223        0.57889079153772
C            0.51183301866977        1.61323840625524        0.10229492376230
N            0.75714158559116        2.95632886569662        0.28788823899732
H            1.67936289838087        3.14956256657855        0.64961434775383
H            0.02925142842277        3.50207542323263        0.71936933173551
H           -1.49061432609565        3.03591027177600       -0.38437369035186
H           -3.73793728970348        2.82467497763264       -0.55805410085666
N           -5.35776032465008        0.97802797681848       -0.12966696785572
H           -5.97562126663195        0.20589190419114        0.05690298284140
H           -5.74677687614135        1.88382331938093       -0.32116877629101
