30
 energy: -50.908438905998 gnorm: 0.000939147150 xtb: 6.6.1 (8d0f1dd)
N           -0.67094761673707       -4.39664105532220        0.05365233488570
C           -0.89584112859402       -3.27047705357866        0.03089298540128
C           -1.29368010798683       -1.90922305559092        0.00497013414418
C           -2.68387697161376       -1.79051512098095       -0.01726566484857
C           -3.47208552936310       -0.66334078649973       -0.03073461139194
C           -3.08952122772335        0.68163528924125       -0.01430612169987
N           -4.10891688877850        1.59079783804481       -0.05891696389201
H           -5.05204435073903        1.27031565275051        0.06822888537644
H           -3.92353801220455        2.56971160437486        0.07447459727700
C           -1.76016035290013        1.17605634863097        0.00594560961898
C           -1.72033485163020        2.59125385821369        0.06678151236226
N           -1.78763673297339        3.73749498052497        0.13891118308638
C           -0.49870276994767        0.53218006438695       -0.01878632068879
C            0.61616373861887        1.37081835508634       -0.04788359550166
C            1.91520349254302        0.89125285249857       -0.05088891943271
C            2.14096673423646       -0.56608691375556       -0.01428171996095
C            3.50274867639155       -0.78053748903445       -0.01452945724113
C            4.13245246516881        0.49236029408373       -0.05131492724681
N            5.46390680712149        0.69122190535108       -0.07380095250914
H            5.83831732393105        1.62270879291994       -0.04859499019335
H            6.09424559864060       -0.08700307571926        0.00147249400214
C            3.15304502180961        1.50907641969358       -0.07593583639306
H            3.34778055589182        2.56398242471171       -0.10543188033403
H            4.01136525781214       -1.72527675728601        0.00841929924320
C            1.03865355016988       -1.40933513168899        0.00771840802046
C           -0.26719263822140       -0.93333403590068       -0.00250780158253
H            1.20379309661789       -2.47758652527051        0.02711756471996
H            0.46809374661079        2.44107784410801       -0.07045723669030
H           -4.54172782601031       -0.83439684826261       -0.05044015690637
H           -3.21816828173998       -2.73371292833047       -0.02116321862441
