30
 energy: -50.113348960539 gnorm: 0.000844772668 xtb: 6.6.1 (8d0f1dd)
N            5.70124415638070        0.53214380617608        0.33721913536653
C            4.55975049282134        0.41185239676953        0.24507362215883
C            3.18051139581807        0.23566984501028        0.14487788219149
C            2.19496718388656        1.25674873425474        0.33257654439789
C            0.95218485057603        0.69008121213583        0.17306027324901
C            1.13443849320466       -0.72501671774820       -0.11942901433088
C            2.54624806149151       -0.97459259660862       -0.12550561204993
N            3.14788064211921       -2.16936565358316       -0.43062713615219
H            2.60650716160995       -3.00227198799645       -0.26443805474892
H            4.12573276995112       -2.23993095789719       -0.19511630583151
C            0.06299083216295       -1.55052239898524       -0.28642740300223
C           -1.25975014674984       -1.06060445085231       -0.13692257608063
C           -2.26635360041677       -2.01734356152611       -0.07850875261340
C           -3.59805893615326       -1.89172400792071        0.33460403474096
C           -4.25286347943524       -0.70664972383353        0.57907524536546
N           -3.91541183478395        0.49339306307655        0.13525953706118
C           -2.76434216919666        0.92065618038995       -0.30093726401523
N           -2.81285221318170        2.01962423634693       -1.07550548250036
H           -1.96600332343994        2.45257588822988       -1.40073627678543
H           -3.71132792625716        2.38691786359126       -1.33909303186222
C           -1.44209495425522        0.37985800915087       -0.00079172145228
C           -0.35915912878061        1.22323985575222        0.18071890652702
N           -0.50890488158358        2.60309215385207        0.31411525169665
H            0.31556123281076        3.05040248346525        0.68532469982751
H           -1.35322611751038        2.90212998971944        0.77968099434777
H           -5.21999447773119       -0.72690032631697        1.06970337765210
H           -4.13772862119493       -2.80876216519905        0.52715322587386
H           -1.93775265740087       -3.03658021266671       -0.24861714476587
H            0.20088318148227       -2.61052245777949       -0.45388397997338
H            2.43788650195660        2.28038405319271        0.55456892060806
