29
 energy: -56.777304674010 gnorm: 0.000691742235 xtb: 6.6.1 (8d0f1dd)
N            5.76156626844186        0.34250107862437       -1.11393688546239
C            4.67727837678881        0.44751492889966       -0.75544513187065
C            3.33622551120930        0.57356218104538       -0.31555157709390
C            2.84083689712971        1.85343746676042       -0.25288441109335
C            1.57422300403337        2.29244811212975        0.14863147438899
C            0.38865883706568        1.59302279555295        0.27722218615039
C           -0.77956915731084        2.38629029292780        0.48633767786400
C           -2.01477588824522        1.84139004327662        0.34167053779777
N           -3.23921853868559        2.45697688584969        0.42173583686909
C           -4.11780197787810        1.54756396609009        0.11588880526889
C           -3.53571499113726        0.25639890745822       -0.19144542827588
C           -4.25607486189385       -0.88041717678410       -0.55697464202968
N           -4.89223844943420       -1.78806129741896       -0.85872174389913
C           -2.17304288925732        0.43617141810214       -0.02903225882616
C           -1.02849403914995       -0.38506178594639       -0.10260845135556
C           -1.20214995851286       -1.73057346847926       -0.50060334837408
N           -1.37028403875607       -2.78095791802919       -0.92919340021130
C            0.23854481375364        0.14903135539063        0.12193869787437
C            1.32374340931056       -0.77299169383768        0.33639905390165
C            0.94866314438315       -2.01669553927920        0.90159193022782
N            0.75251160482946       -2.98915433068140        1.48081242788753
C            2.69677426781918       -0.64001284090347        0.12075551434313
N            3.50097035740534       -1.70763510110075        0.31533724372587
H            4.48964703267640       -1.64299581152950        0.14266999072154
H            3.10895163041083       -2.59480311172375        0.58437756108073
H           -5.17051155441292        1.76779089489804        0.10546252486499
H           -0.67265577026874        3.44195167009431        0.68283387121961
H            1.49182012722862        3.36488822914769        0.27604642988389
H            3.53904974215526        2.63618937346638       -0.52598924667859
