28
 energy: -57.842411025900 gnorm: 0.000788144291 xtb: 6.6.1 (8d0f1dd)
N            6.04154057668494        0.50832756696481        0.85022760461737
C            4.94474663516560        0.30087972644355        0.59609192002877
C            3.58296213871926        0.04611927644637        0.28289411148146
C            3.14959249482891       -1.25937893430116        0.37938951434915
C            1.88440120698386       -1.76947009456342        0.06917267463301
C            0.66605280935920       -1.13672101428596       -0.12183213633210
C           -0.47050484335786       -2.00474742552827       -0.27517354085836
C           -0.29457095016475       -3.39640782666747       -0.46186927938519
N           -0.14818001709708       -4.52032514289754       -0.62938153543495
C           -1.74496407441451       -1.50125777260096       -0.17600953539771
C           -1.96201212993705       -0.07741276641635        0.08877220036686
C           -3.33575720978567        0.05451987828193        0.22086768040779
C           -4.10314533600163        1.19069891941764        0.48823598563739
N           -4.76860262980105        2.09912625221617        0.70983551135586
C           -3.85684673007895       -1.27283526690265        0.00629855834312
N           -2.92881238195617       -2.16665565729498       -0.22208968064705
H           -4.89695290401299       -1.54420444286221        0.02037400674401
C           -0.85911578245033        0.79735151965102        0.09313176021932
C           -1.10857367562241        2.16197623317525        0.37911557346280
N           -1.35647522236878        3.22624270590296        0.72361599938242
C            0.43232390367113        0.30569052705991       -0.08736381037605
C            1.48489019534732        1.25208464142285       -0.35909108348220
C            1.08721899833855        2.47511888986975       -0.97363701944078
N            0.87014581092771        3.41841306809163       -1.58585952218942
C            2.84177146259162        1.15559441797252       -0.18923795751737
H            3.42008160089231        2.04241140299198       -0.42311571212073
H            1.83799657812554       -2.85278316478982        0.05130169468497
H            3.89031447891415       -1.99064693189877        0.67862925276744
