29
 energy: -51.196082302749 gnorm: 0.000780859101 xtb: 6.6.1 (8d0f1dd)
N           -5.61454127581819       -1.03952204983499       -0.03563763516249
C           -4.47375895674471       -0.89811249465114       -0.02304283308626
C           -3.07210252803714       -0.73617310086843       -0.01113817486968
C           -2.34408780883681       -1.94122409528431       -0.02125877657458
C           -0.99655302725541       -2.14254257229371       -0.00916942956247
C            0.10063590652379       -1.24396807026844        0.00615376906677
C            1.35285652351248       -1.83094479214052        0.01866618772541
C            2.52526160789598       -1.07474867403493        0.02302597860106
C            2.41177107495549        0.39196738785107        0.01047881556074
N            3.62548349377868        0.97216324143808        0.01273310822295
C            4.49923010577616       -0.04016181347508        0.02598726160355
N            5.81942903403835        0.18486104081185        0.03104811420942
H            6.47573745145950       -0.57401620231488        0.04138534394919
H            6.14604517457412        1.13489219443505        0.02549248581406
C            3.87325490232535       -1.33437946972213        0.03301283234687
H            4.38213157033548       -2.27799800272487        0.04354627585509
C            1.17604309936358        0.98608907512942        0.00000333043204
C           -0.01198216757530        0.22634042115312        0.00201309273030
C           -1.20966363744027        0.96338344417312        0.00252827286471
C           -1.06007842441124        2.37496755602427       -0.00455873420897
N           -1.04402643524074        3.52433670146379       -0.01316282945822
C           -2.58713150201303        0.58079667793853        0.00863532808471
N           -3.51227505172438        1.57424325856924        0.03856315092777
H           -4.49066116096536        1.34346202546826        0.01636515697680
H           -3.23894790769443        2.54102532552510        0.02380044207200
H            1.12550733396120        2.06373729473418       -0.00662823662408
H            1.42667039994052       -2.90979003820019        0.02301647450346
H           -0.69616582787321       -3.18387875649474       -0.01405726674013
H           -2.96295695061050       -2.83061323860665       -0.03720596656011
