22
 energy: -40.319008028218 gnorm: 0.000551255338 xtb: 6.6.1 (8d0f1dd)
N            5.47620206862471        0.26855557378916        0.26627326080689
C            4.33907372797845        0.16100830346248        0.16838180551256
C            2.93692944817446        0.02246821213293        0.03649543935315
C            2.22038665069596        1.16791215567676       -0.36825073186566
N            0.94923612652790        1.39531325544713       -0.25193138154174
C           -0.08259323429229        0.61983009493169       -0.00736078331200
N           -1.19696965012901        1.28188248545024        0.27856835342899
C           -2.34040558727186        0.65036995491454        0.23108930743035
N           -3.54507548546516        1.16041653569834        0.47898072132980
C           -4.41628671795119        0.17784344876685        0.22293695796282
C           -3.82660424041334       -1.03527463605822       -0.16839576064821
C           -2.46248657508390       -0.79201261914028       -0.18171205297258
C           -1.29735581789858       -1.52350552113859       -0.29577887771726
C           -0.07079856009084       -0.87522750318677       -0.13077148215008
C            1.08296128060707       -1.64041046966330        0.05966021356451
C            2.39410007362739       -1.24502384025386        0.26213024566781
H            3.09911419318611       -2.02127946104792        0.53414869870052
H            0.91014197852086       -2.71086638817120        0.11452810254211
H           -1.32029442178274       -2.59657671724377       -0.44376284577868
H           -4.33958022657244       -1.94445529044615       -0.41248402360373
H           -5.47013407475254        0.36828181613280        0.33256984727760
H            2.79562158536057        2.01617625404729       -0.72824761668713
