28
 energy: -53.056396300866 gnorm: 0.000531881813 xtb: 6.6.1 (8d0f1dd)
N           -5.13892430723008       -0.65940481349653        0.65341318570535
C           -4.24414990440597        0.02227225544858        0.42004503456627
C           -3.14020823736828        0.83074327310886        0.14118947420750
C           -3.12618225875940        2.17831907045027       -0.14876725493839
C           -1.78873098046813        2.61512145391255       -0.36663655879442
C           -0.95179546582264        1.53660578635245       -0.20274777213885
C           -1.77014237338271        0.37003054089617        0.10704512195339
C           -1.21709834548795       -0.86004493804674        0.23888176594463
C            0.19249083217883       -1.04677179629833        0.06280201127997
C            0.62742360791453       -2.35651867416424       -0.11097384772948
C           -0.33730720002071       -3.39777481228486       -0.02954328748980
N           -1.05119426267740       -4.29279456570471        0.02816950231849
C            1.90871359802772       -2.86563026413048       -0.47313474538180
C            3.11251194666487       -2.23760393028436       -0.40908583958521
C            3.36143511766439       -0.92925934718984        0.06345976198409
C            2.46262857922936        0.08551718825196        0.24564768045666
C            3.02669367904010        1.24398914875348        0.84997637992940
N            3.52541785003259        2.08947604063321        1.44143040547916
C            1.04049571171697        0.13964998423661       -0.01695008725443
C            0.45521080648202        1.38287899443053       -0.21411458486169
C            1.21664893668866        2.53563486273223       -0.51561115426829
N            1.75100417782007        3.48784861239910       -0.86650843615288
H            4.39432707482740       -0.69806497574865        0.29346028642386
H            3.98723399963530       -2.81512987417772       -0.67616188872433
H            1.90504494334346       -3.90389020334975       -0.78228544860786
H           -1.84092473116432       -1.72672263407448        0.40749370015339
H           -1.49688178721472        3.61972013287332       -0.60849961701842
H           -3.99329084997387        2.81152036177171       -0.20154973217151
