24
 energy: -43.779080939101 gnorm: 0.000939246062 xtb: 6.6.1 (8d0f1dd)
N           -4.05463786689088       -2.50129047044882        0.83765851237659
C           -3.55073528324630       -1.50983201528984        0.54600303769607
C           -2.95375342034485       -0.30053058200929        0.18896418973145
C           -1.55800753893194       -0.02667994407196        0.17587144862286
C           -1.40025583618012        1.38441311863736       -0.28486445049402
C           -2.66928475619433        1.87517755901695       -0.52791694028171
C           -3.59963386967099        0.85624498875544       -0.25187392562374
H           -4.66683772772277        0.95345254283413       -0.35293719674600
H           -2.91687070329528        2.86623297535372       -0.85911211264612
C           -0.12834384026547        1.93741154998014       -0.22292531693281
C            0.94117286114651        1.14448668130267        0.17660897844902
N            2.10453727870286        1.73378398137837        0.44169682420521
C            3.26857962020622        1.20708252928319        0.64148774804586
N            3.76046874839062        0.04530439668251        0.22567066308625
C            3.05890795706049       -1.01418660757088       -0.10391780845405
N            3.74183376075660       -2.01025582202428       -0.69980623329873
H            4.72472846857632       -1.88260316680163       -0.86707975728075
H            3.31011533632558       -2.89318318800977       -0.90353337379466
C            1.67312661356375       -1.25517020579042        0.18319776557572
C            0.68960762189969       -0.31544762821944        0.35107522367515
N           -0.56211206140776       -0.79963873269836        0.48204540128401
H            1.33156946180235       -2.28223219101874        0.13488548410961
H            4.01054905077636        1.86940097687462        1.07626630297440
H            0.04319014194205        2.98898902635561       -0.39902421038014
