29
 energy: -56.784841537970 gnorm: 0.000859336768 xtb: 6.6.1 (8d0f1dd)
N           -6.02405095532314       -0.67066288116299       -0.35911540687294
C           -4.88515849695917       -0.60208462582566       -0.25305688364701
C           -3.47423906956228       -0.52686247339343       -0.13087922460460
C           -2.77386630573953       -1.74003606695299       -0.26865430400542
C           -1.43043665919883       -1.95849367857807       -0.12525612744918
C           -0.33124015481672       -1.07957808221441        0.02436720966725
C            0.92532689086510       -1.68761193367565        0.15341265578223
C            1.06447193972152       -3.08620740041010        0.27448906134264
N            1.23493685788343       -4.21580576765750        0.38804508825993
C            2.11180397125027       -0.93335015431698        0.12415754855641
C            2.02260450149130        0.51586617658273       -0.12586071212290
N            3.23049618838390        1.05898811787166       -0.23055691348744
C            4.10173517777599        0.04583618457568       -0.03994002820084
N            5.41365947338005        0.26725478918324       -0.07068017699955
H            5.73673415749289        1.20535671955840       -0.23836619192544
H            6.07184533177428       -0.47762389313300        0.07490857435981
C            3.45322256482088       -1.21367654815258        0.17829952777159
H            3.93550728048778       -2.15628961974091        0.34055162943695
C            0.77750277660909        1.13359674842757       -0.19190398176046
C            0.76336616925468        2.50091328610085       -0.55352643235140
N            0.82925263686785        3.56898754075251       -0.96551317642188
C           -0.41061381008233        0.38594382234389       -0.00746811331978
C           -1.60212741680555        1.10796415439892        0.22012003581423
C           -1.48489867127163        2.45747377028481        0.65897425846243
N           -1.52549869534480        3.49227207627578        1.15095252023528
C           -2.94474106744561        0.71741209559117        0.16671608244354
H           -3.66095791326839        1.51095041340853        0.35031390644194
H           -1.13661004326713       -3.00158315141879       -0.17692936386928
H           -3.38807865067259       -2.61166820032269       -0.45687975523540
