31
 energy: -55.427317662231 gnorm: 0.000634210999 xtb: 6.6.1 (8d0f1dd)
N           -4.74109551789469       -1.42007601685040        0.80226118815372
C           -4.03197613143253       -0.56727526394101        0.49844085605512
C           -3.23500252069777        0.51519696953221        0.12752463378156
C           -3.76923985316018        1.82599501223305       -0.19964327040079
C           -2.75772062865869        2.67167937331260       -0.50780546398853
C           -1.52160447600272        1.94332196248334       -0.38975169885193
C           -1.85987896691563        0.57782658862770       -0.00310462741826
C           -0.82070302261710       -0.37245761479848        0.12108100807127
C           -1.15395364660657       -1.67877297037332        0.54129626618149
N           -1.44011901183862       -2.69531478377996        0.99127054361926
C            0.50997428464872       -0.00673340664941       -0.07536509163958
C            0.84358669160156        1.40143537873972       -0.23950985117509
C            2.08703488055558        1.96205458047323       -0.10151406977803
C            3.32415873735876        1.40326463478481        0.32478291522758
C            3.63777115971516        0.06543709384867        0.38771121512510
C            2.86089378674299       -1.04939178000848       -0.00043691629567
N            3.52713119621205       -2.22977983101487       -0.08843486368678
H            3.04115859503209       -3.05763347183643       -0.38814699659647
H            4.52826170738623       -2.25419066798383       -0.02704445550281
C            1.48214540971136       -1.05317947938755       -0.24326666975280
C            0.98882391334356       -2.26015613349156       -0.78507037914963
N            0.70939851407483       -3.22395790522291       -1.34791089588625
H            4.65398982817804       -0.17006384777069        0.68250746321598
N            4.30587864075602        2.30986931078324        0.61013056034637
H            5.15279243802383        1.98987441654137        1.04534238874398
H            4.06070400544043        3.27435994890921        0.74731159550768
H            2.13074794098386        3.03475915099014       -0.25783549038383
C           -0.22766222663963        2.32344652013702       -0.50050224218143
H            0.02727835047083        3.35172408546159       -0.71666688364651
H           -2.83463337316869        3.70455891521975       -0.78934911490778
H           -4.82071780820318        2.04988487173180       -0.18740698248774
