32
 energy: -59.949922967271 gnorm: 0.000543342079 xtb: 6.6.1 (8d0f1dd)
N           -5.70520901890118       -1.17457905445625       -0.79927612910161
C           -4.59383949020000       -1.01713723810738       -0.55724591837915
C           -3.22390271290074       -0.81868140947346       -0.27054406319629
C           -2.42760884448555       -1.95452033222953       -0.33687356038639
C           -1.07642312772220       -2.09701907535871       -0.07700929747064
C           -0.06804556798233       -1.14413670057856        0.07260450082294
C            1.24919101120179       -1.63307357288066        0.24283940790135
C            1.48654729458378       -3.00606517880236        0.45480247161307
N            1.72110495801364       -4.11427007978896        0.64570874042104
C            2.36067665232373       -0.79346578552798        0.14432664062672
C            2.15020001023027        0.63217025117709       -0.18343206855717
C            3.38123952893726        1.21563707618354       -0.33700836599347
C            4.36192778285761        0.20876276615199       -0.09015053456050
N            5.68506924536502        0.40552089743191       -0.13362059141169
H            6.05685151907210        1.31345417133384       -0.35171504578153
H            6.31928759441849       -0.34920407804733        0.06203605259277
C            3.72123904100929       -1.01762804816288        0.20229745488641
H            4.21037998488877       -1.94786545159761        0.41690360177698
H            3.58517467012541        2.24029479825051       -0.58024564146299
C            0.83735344532419        1.13451282501884       -0.23492608031960
C            0.69567790767872        2.48455164399466       -0.62007828649204
N            0.66494251509924        3.54960593052762       -1.04907800992241
C           -0.27230199758542        0.30825304124824       -0.00761361623198
C           -1.51695364868778        0.94423553545258        0.25517772242104
C           -1.41976362456505        2.25783094551022        0.77854399485163
N           -1.43902682837621        3.26311564281065        1.33557415710688
C           -2.84652039064774        0.49073773819636        0.13703160015766
N           -3.84854845216609        1.36343650144067        0.39601783009000
H           -3.64509562231563        2.31691865029637        0.64318954705953
H           -4.80674433977175        1.07833807464716        0.28856474347359
H           -0.72768802355317       -3.12319649943530       -0.05877907062022
H           -2.95642547946378       -2.86728161802483       -0.58423561502335
