30
 energy: -55.726597775148 gnorm: 0.000857892838 xtb: 6.6.1 (8d0f1dd)
N           -3.61797270791673       -3.50832719673913       -0.00262197899231
C           -3.05583771456750       -2.50469383508835        0.00017153453136
C           -2.44366124621895       -1.25322978588118        0.00330778298751
C           -1.07456286602835       -0.95548933253697        0.00528847399448
N           -0.04875350556330       -1.77480376093340        0.00453578786097
C            1.19429703115906       -1.28501001726782        0.00513185237622
C            2.16598572936114       -2.29394701150919        0.00272189915880
C            3.54790706866363       -2.23695006820768       -0.00028624427875
C            4.38051424620455       -1.13695320948330       -0.00090593313989
C            4.02735878915414        0.22072090542267        0.00374685014203
N            5.04031406154569        1.12612467071673        0.01980307627037
H            5.99588679478798        0.82545892952724       -0.03808573487078
H            4.84450715169620        2.10983843695443       -0.02720952464962
C            2.72657308119279        0.74445003742178        0.00800846297276
C            1.47053063607700        0.15392467652997        0.00760763734120
C            0.34630590149974        1.03610982028293        0.00872026035238
C            0.53349606569062        2.43442585857383        0.00950794166743
N            0.69941220402051        3.57074555679480        0.00866116226868
C           -0.93734113228110        0.51181692224832        0.00740114187869
C           -2.22420993825142        1.06245656841002        0.00649442708095
C           -2.60184930739362        2.40450543322362        0.00729507418609
N           -2.97927217759561        3.49103889335915        0.00796778475706
C           -3.15326450115363       -0.01739108282179        0.00396281975643
N           -4.48343038320462        0.10974855216587        0.00200447180989
H           -4.90462420088997        1.02359330213079        0.00233383194231
H           -5.06968555352989       -0.70789471643967       -0.00006445922668
H            2.70111070599543        1.83079932297119        0.01163345342958
H            5.44506328577963       -1.33764562461059       -0.00406195404591
H            4.04882822136123       -3.19677730667542       -0.00344339961175
H            1.72308369060534       -3.28197046373881        0.00215845345036
