28
 energy: -55.473903852553 gnorm: 0.000729615685 xtb: 6.6.1 (8d0f1dd)
N            1.06368301959555        3.59843269448354       -0.50326356237646
C            1.33559315787033        2.50007423107015       -0.30138641506814
C            1.73861818544045        1.16938554997013       -0.05611919381313
C            0.67239788346123        0.26954728692285        0.16587118306435
N           -0.52575412126929        0.80088814882853        0.34181128545706
C           -1.60189695438696        0.11317616792133        0.07521920976634
C           -1.47029971123504       -1.27721425311106       -0.45899817105293
N           -2.66169830707132       -1.83180860966557       -0.62442704633059
C           -3.56516738756966       -0.91178095356253       -0.23318659235133
N           -4.87380656483591       -1.15584479499922       -0.30078686507247
H           -5.53474920324969       -0.47985064906772        0.04136824938516
H           -5.18619046241808       -2.03557713536310       -0.67309845880931
C           -2.96771071104712        0.28369988836786        0.28959316328988
C           -3.67180992150128        1.34584033990058        0.84517387075327
N           -4.31572324540185        2.18390146797366        1.29981872924014
N           -0.29925267150798       -1.85205050420398       -0.48496399222242
C            0.79678633121681       -1.18156552378150       -0.11835252574983
N            1.89790609041124       -1.88006948940409       -0.10775282884910
C            3.14442027951061       -1.55926832903203        0.19722618029007
N            3.90545648639944       -2.62519637875148        0.53978216525214
H            3.48202628045050       -3.53419709802029        0.47222654198604
H            4.90382627492939       -2.55075130074121        0.60819050604289
C            3.75804797425529       -0.30382368509992        0.09112532742053
C            3.13877907276189        0.92647982842862       -0.11038190160074
N            3.93384738617970        1.99819104397622       -0.33970238750349
H            4.93154257541979        1.89456309587770       -0.35959225673888
H            3.53462652875108        2.91614336022195       -0.43594686066177
H            4.84065867774729       -0.29793681803739        0.10871842195390
