25
 energy: -49.086740546429 gnorm: 0.000150765683 xtb: 6.6.1 (8d0f1dd)
N           -6.37829983043905       -0.15177133482033        0.00377383398622
C           -5.23587885894862       -0.06207269338091        0.00238720324024
C           -3.82316689793627        0.04101763136019        0.00060414294299
C           -3.10973042225981       -1.20880122757750       -0.00436138292517
N           -1.85348138931157       -1.45167040098874       -0.00423073749822
C           -0.77690840535481       -0.64692154782095       -0.00154900356832
N            0.34067462086275       -1.32908027017048       -0.00031786482064
C            1.50537164303338       -0.69680026291095        0.00063681151822
C            1.60850963518562        0.77199293021283       -0.00029024569889
C            3.00664381844495        1.09242048165931        0.00011015651968
C            3.52175341455094        2.39254787330903       -0.00048218938188
N            3.90779813420293        3.47412981213346       -0.00056326411568
C            3.70810407502404       -0.09744683991202        0.00117813931445
C            2.80227813312007       -1.20393887498645        0.00141582483402
C            3.18868976407129       -2.54865088967153        0.00200983213399
N            3.53536909139156       -3.64284298290119        0.00308898761294
H            4.77938551033794       -0.19377782196998        0.00160208157783
C            0.46761746114443        1.50986433967663       -0.00136378265963
C           -0.79359151566137        0.84625746606575       -0.00107772477173
C           -1.91776865057059        1.64814802313784        0.00128616352500
C           -3.27864542961437        1.30446312836673        0.00315923913310
H           -3.97548208789936        2.13452391000153        0.00642420058447
H           -1.72400932832190        2.71604628760810        0.00265320887311
H            0.49544597970643        2.59247999215011       -0.00205206115657
H           -3.73464296565867       -2.09861300947056       -0.00810567009954
