31
 energy: -60.235227646180 gnorm: 0.000479025022 xtb: 6.6.1 (8d0f1dd)
N           -6.12823328283447       -0.38602528811850       -0.00298303450183
C           -4.98028278913227       -0.37850048715839       -0.00262657989322
C           -3.56562845310724       -0.36588747506158       -0.00136925095597
C           -2.96714679232761       -1.62685911770812       -0.00147994553677
C           -1.63659632901074       -1.98170456719056       -0.00072339367544
C           -0.47349823069030       -1.20014117569189        0.00042015150563
C           -0.44180760886410        0.26741402811649        0.00116392681002
N            0.69973500570832        0.95948655006916        0.00234383770162
C            1.85194443879072        0.32895788822305        0.00285197829219
C            1.96164086582263       -1.15002112516913        0.00212415303635
C            3.29686196560925       -1.48642143161624        0.00288920329989
C            4.04209794975216       -0.28139993459636        0.00407264210879
N            5.37261171794761       -0.17766695568872        0.00506372719326
H            5.80308517466356        0.73274435660865        0.00587266646595
H            5.95331508374480       -0.99837121266687        0.00499724960828
C            3.14933958518177        0.83936330903079        0.00404479112204
C            3.57772436714453        2.16540413313079        0.00501808377351
N            4.01757127277878        3.22792160772038        0.00598492181182
H            3.71278872256221       -2.47605699577013        0.00264486602659
C            0.76565798029958       -1.87571237331044        0.00090706043910
C            0.83932435701090       -3.28463944618489        0.00026560323424
N            0.94939961408709       -4.42764139911863       -0.00048652247286
C           -1.55397513355568        1.13134347741595        0.00072758998474
C           -1.16785468083638        2.50093794724653        0.00153366189975
N           -0.96697392635869        3.63068782585495        0.00230563615826
C           -2.95138478998681        0.91030218511319       -0.00039204927197
N           -3.75818473176950        1.99377666772686       -0.00056610463438
H           -4.75805542312084        1.88356839409860       -0.00133108976905
H           -3.36413121813115        2.91971979649318        0.00011342409627
H           -1.45164993787034       -3.05044805390566       -0.00110860365979
H           -3.66902578200779       -2.45263472699243       -0.00234483209703
