26
 energy: -47.213516127813 gnorm: 0.000646985842 xtb: 6.6.1 (8d0f1dd)
N           -1.37320575646703       -3.57899162450679        0.68353192766357
C           -1.29323935721322       -2.46109933133984        0.42768521103445
C           -1.27167764497621       -1.08384339271293        0.10718303683269
C           -2.55653263829113       -0.56223159533652       -0.27767716061676
N           -3.49281777783811       -1.46822896952579       -0.66424193743019
H           -3.30709298678668       -2.45349985482101       -0.59085158107072
H           -4.44257365065087       -1.17292399754831       -0.80120222204058
C           -2.91764585617408        0.76698267536655       -0.20320490697088
C           -2.08769071538631        1.84941328420260        0.17488286520189
N           -0.78329665418208        1.93061375906661        0.08577083153800
C            0.14845838450032        1.02009979552887       -0.12529352303924
N            1.32032123153206        1.50397255721127       -0.47461303232355
C            2.40139013131045        0.76327394828535       -0.36425084031177
N            3.62621893761168        1.05422042623930       -0.74533064213129
C            4.39930125031268        0.00396343952329       -0.35967282745819
C            3.69379398435454       -1.03886594554363        0.21012195626627
C            2.35923385286771       -0.60677074112775        0.24826731950128
C            1.13051758867572       -1.18891696650072        0.41345043117358
C           -0.03648163823261       -0.43988382192213        0.14470802872765
H            1.04061248941980       -2.24342788762331        0.64328754796530
H            4.08646328417007       -1.96721454199978        0.57540467376615
H            5.46029641111110        0.05091561923916       -0.53471476232400
N           -2.68663151600973        2.98563665878602        0.60875926975040
H           -2.09706922704139        3.79143781421903        0.72800632547320
H           -3.67864656143247        3.11419081929125        0.52729916362681
H           -3.95822351778387        0.99896353214846       -0.39387939890325
