30
 energy: -54.915147478424 gnorm: 0.000720709510 xtb: 6.6.1 (8d0f1dd)
N           -1.49299505891079       -3.36587175008418       -0.80900647755665
C           -1.51166762223424       -2.27007845308476       -0.45872454223705
C           -1.65831399339368       -0.90179851494536       -0.14210741853815
C           -2.99824884514438       -0.44202655571154       -0.18349185283631
C           -3.42145204391246        0.85448294195588        0.12144405800142
C           -2.62404467455256        1.97986336461170        0.31102756630506
N           -1.35110523184810        2.13958609483863       -0.03855147055929
C           -0.38376431375567        1.27800578703196       -0.19556501026067
C            0.85684240429700        1.84558461475522       -0.58070771995252
C            2.01424365775170        1.14150570360933       -0.41415410468312
N            3.28960880558214        1.54249690933272       -0.60607038337677
C            4.04587003717377        0.52685097803788       -0.19166239055746
N            5.38227289965057        0.58706120673541       -0.23222004789543
H            5.94272895499636       -0.19605346463149        0.05024156912361
H            5.81778161306783        1.40739283357464       -0.61528112796861
C            3.28220712489834       -0.59604465198571        0.29763795560697
C            1.97707796769558       -0.22354163370944        0.14894450176936
C            0.72798086361080       -0.85658881357978        0.35084393402526
C            0.74928178849975       -2.16091840905258        0.87778963172570
N            0.84827518520033       -3.17989321368156        1.40078459796214
C           -0.45585684376011       -0.17613194556263        0.07009615291651
H            3.68208748748658       -1.51458489326316        0.67860957927953
H            0.86791067926908        2.88153582294803       -0.87800800696170
N           -3.18926739146693        3.11189943665036        0.81115383364405
H           -2.64250003186846        3.95347873743030        0.76795172676490
H           -4.18660351701242        3.18993259316702        0.89244289241527
H           -4.49191944228283        1.00210353803499        0.19671235524389
N           -3.96576853544221       -1.34525878946766       -0.49308233608900
H           -3.73583276512343       -2.31895275468346       -0.59423278232096
H           -4.93194964777186       -1.08691809077120       -0.41205994538903
