24
 energy: -49.356024863368 gnorm: 0.000735166008 xtb: 6.6.1 (8d0f1dd)
N            6.14286735108005        0.30294828213347        0.25432301913898
C            5.00597181380847        0.20444744355610        0.15281896048779
C            3.60122036047263        0.08597454826170        0.01597024366579
C            3.10911304558636       -1.11368969171178       -0.54260499430107
N            1.91512017939611       -1.59369474357300       -0.40447206607349
C            0.76640501336436       -1.08047221164861       -0.04336473365622
N           -0.17354633208799       -1.98062652675714        0.25001452209122
C           -1.41847664682858       -1.60520534822003        0.26391451938550
N           -2.48462986474589       -2.38262660728391        0.51214882259663
C           -3.54873838541715       -1.62543680532170        0.32450309622509
C           -3.24874545609032       -0.27305045058041       -0.03078426602673
C           -4.17564552645974        0.74253116219518       -0.27864591982527
N           -4.94533461712341        1.56904572983851       -0.48251749960164
C           -1.86060116343276       -0.21607747977255       -0.07700356663868
C           -0.88003817931789        0.76765662219191       -0.17922370706663
C           -1.22916564321722        2.13098544720070       -0.31962654364583
N           -1.49922143533747        3.23876233211895       -0.43780949051471
C            0.47178501406300        0.37915175410013       -0.06172158327588
C            1.45263207131386        1.33922460818823        0.20097568930372
C            2.81818648390882        1.18299335061924        0.38263459599631
H            3.35630464108049        2.04761089541711        0.75135432749589
H            1.07540437700631        2.34601387857577        0.35190188340784
H           -4.53704093090539       -2.03366796850476        0.44390795058068
H            3.81085745338288       -1.77263203432163       -1.04421526424967
