30
 energy: -56.504198222360 gnorm: 0.000401633139 xtb: 6.6.1 (8d0f1dd)
N            5.38010714900772        1.93626505009524       -1.00993577471079
C            4.32183343357324        1.64045636415987       -0.68052648629175
C            3.01448021231100        1.27293145041832       -0.27951007749428
C            2.08968733042934        2.28302143261167       -0.23484628125297
C            0.73273943803484        2.22779573856866        0.12075812840768
C           -0.11624907266577        1.14361307680324        0.19375403688188
C           -1.51096011581572        1.45476814576815        0.33505998761696
C           -2.45040558312990        0.50881046572543        0.11039747830522
C           -2.07913042067275       -0.84962538959529       -0.25766246576207
C           -3.23163651485434       -1.55487684862918       -0.50461189106460
C           -4.34457923677917       -0.68801680545759       -0.28669354718932
C           -3.90209770631894        0.55890083823643        0.08638859730531
C           -4.65196967656286        1.69551064740541        0.38662451555795
N           -5.24097557452105        2.65078822039612        0.63621206235451
H           -5.37415087544401       -0.97668142884485       -0.39845877987091
H           -3.30009593828280       -2.58359067491416       -0.80465456713809
C           -0.70329565703803       -1.19658632489272       -0.25268449920324
C           -0.37418459078645       -2.51762967035434       -0.62709675171653
N           -0.17197232028637       -3.57170826279165       -1.03326482511017
C            0.27017467419618       -0.25018353313690        0.03411321782885
C            1.61227782470849       -0.71919074871620        0.31428465164125
C            1.68279461282901       -2.01174441903605        0.88405182178526
N            1.81411583957697       -2.99995805061298        1.45596290561924
C            2.84346838032151       -0.09662455080078        0.14966492818690
N            3.97890112831447       -0.78821334627281        0.39941963459529
H            4.87958434538343       -0.36199208969312        0.26610399239941
H            3.93042514890266       -1.75592563836054        0.67094057906742
H           -1.79240563976816        2.47634024397392        0.54916923539996
H            0.26372387291903        3.19614880821903        0.24563449762546
H            2.46101797271150        3.26896852195365       -0.48992897191704
