29
 energy: -55.986975813694 gnorm: 0.000890664734 xtb: 6.6.1 (8d0f1dd)
N            5.77461267438988        1.70130486810070       -0.00197348954524
C            4.66935352391062        1.39014073917322       -0.00132240771289
C            3.30882086839211        1.00264166271439       -0.00097014595455
C            2.39859095366631        2.06050581402590       -0.00104291149628
C            1.02258684103108        2.04511331980256       -0.00062673121014
C            0.11712863652675        0.97577660471871       -0.00024029105456
N           -1.16236623324749        1.36256537310002        0.00011152370732
C           -2.08794526216633        0.42302393445504        0.00075599630895
C           -1.72929605746871       -1.02231874876407        0.00100342930542
N           -0.46299183334331       -1.40175551791466        0.00065878905131
C            0.47559425110163       -0.44909836679249        0.00005892813916
C            1.77806000018488       -0.98858733838793        0.00014783165952
C            1.77438177044683       -2.40969174112353        0.00191409025573
N            1.86466541054427       -3.55386189563736        0.00040183254428
C            3.05946073326785       -0.39370502821170       -0.00033376359523
N            4.13198718212171       -1.21700552089021       -0.00008157708361
H            5.06407462534940       -0.83900629398467       -0.00041790040885
H            4.00504319282715       -2.21504319587853        0.00038226298808
C           -2.89675782302612       -1.76118913642369        0.00136934601485
C           -3.97117675198520       -0.85289194582429        0.00147331506676
N           -5.27112223785115       -1.15733811527413        0.00182437332099
H           -5.57375948547169       -2.11603943978806        0.00207283123455
H           -5.95914633847587       -0.42213680675467        0.00183203493887
C           -3.47506493277850        0.50251398876772        0.00105037759904
C           -4.29444315054516        1.62686299050917        0.00103745550015
N           -5.02701567919176        2.51467482740273        0.00082198375290
H           -2.97605956936909       -2.83017138847520        0.00155730122367
H            0.52596498279375        3.00729198441475       -0.00058197594628
H            2.85742642896613        3.04262379324027       -0.00142261290398
