26
 energy: -48.014187477300 gnorm: 0.000978100075 xtb: 6.6.1 (8d0f1dd)
N            4.73869655335279        2.14095160251773       -0.03652669760407
C            4.05470816196049        1.21706134505471       -0.02764505102516
C            3.22697137667272        0.09401824551211       -0.00739872835528
C            1.81356581541371        0.10083169554871       -0.03704209763802
C            1.37810636572402       -1.32869451896164       -0.02150705441223
N            0.09326283042800       -1.62205032300293        0.04984453061934
C           -0.79295854969343       -0.63463094555522        0.06825405566998
C           -2.14419160526755       -1.06071719311924        0.00848600786751
C           -2.31532607052135       -2.46553946279006       -0.10877055774704
N           -2.52495485244135       -3.58897071882923       -0.19848556886681
C           -3.32662824020914       -0.32955255721917        0.04363849726957
C           -3.52147361581465        1.03683896823123        0.07529246702063
C           -2.56735113415714        2.06154031691360        0.01651507253454
N           -3.02258464558730        3.33863763111240       -0.02248632242417
H           -2.37942586330281        4.10855128365521       -0.05350267523636
H           -4.00665367087446        3.53402380858545        0.00649506583999
C           -1.17247337947837        1.89385827805962       -0.01546076199237
C           -0.36625666704072        0.77081244674375        0.06095947533468
N            0.95229826289273        1.07226814824766        0.04401043276252
H           -0.59575678856238        2.80720663112761       -0.11736276993908
H           -4.55297588203065        1.36577061738685        0.10956405624488
H           -4.22820272090156       -0.93100275949561        0.03201526445811
C            2.51756185725280       -2.10952281588805        0.03590634561862
C            3.62619347728905       -1.25021779721833        0.01627919219281
H            4.65329063103473       -1.57131566688621        0.03980624629062
H            2.54963991026175       -3.18043134983128        0.08220582251632
