26
 energy: -48.813687578828 gnorm: 0.000573728596 xtb: 6.6.1 (8d0f1dd)
N            5.57451217754164        0.99619383864116        0.00071923046394
C            4.44637890038336        0.79938045247185        0.00076566251022
C            3.04743049353686        0.55406035249411        0.00026117918132
C            2.22308520240212        1.66589972636871        0.00054302414183
C            0.83018488988118        1.70724340404222        0.00038183316650
C           -0.14016206928639        0.71237984461777       -0.00003111195666
C           -1.48823424745610        1.17564974564442       -0.00000925575738
C           -1.78295590923614        2.55969850773600        0.00075544548120
N           -2.02996076031952        3.67935308623962       -0.00001387388974
C           -2.54965191746335        0.28815585092181       -0.00033849182291
C           -2.29050800890163       -1.16594326641342       -0.00067329053528
C           -3.54884084978535       -1.74276594238651       -0.00086729996053
C           -4.45352625103108       -0.66250953980934       -0.00063630586343
N           -3.86598007672993        0.53502327090211       -0.00029748815500
H           -5.52744539796401       -0.72569935583437       -0.00069208238603
H           -3.79810224315290       -2.78479881167954       -0.00111563277683
C           -0.98046395500252       -1.62219776447320       -0.00073615548970
C            0.09882281441159       -0.74699878140776       -0.00040346648127
C            1.39624956271101       -1.33871643228412       -0.00049363039584
C            1.44443150821295       -2.76448968672725       -0.00145314688665
N            1.56918361687352       -3.90336213102041       -0.00096910040412
C            2.66855326407095       -0.79943784749319       -0.00021083401922
H            3.48546063047051       -1.51271501250546       -0.00036333359600
H           -0.79986753932189       -2.68790949884525       -0.00101904255787
H            0.42788878899815        2.71457530956385        0.00064601319170
H            2.72232455675688        2.62676996813632        0.00097494659800
