29
 energy: -51.997093575692 gnorm: 0.000685683594 xtb: 6.6.1 (8d0f1dd)
N           -6.31716862399761       -0.15108742821848        0.00356713143384
C           -5.17304368766641       -0.22464970086008        0.00124561180199
C           -3.75970882357807       -0.32792852460014        0.00130231916349
C           -3.23777293799133       -1.62796310603152        0.00073394312902
C           -1.91828992042715       -2.01568366607355       -0.00014780326457
C           -0.71037843061308       -1.29294327449672       -0.00079336881413
C            0.44982846268468       -2.06378485172710       -0.00172441539906
C            1.71571204038398       -1.49775295642882       -0.00240984515743
C            1.83205101897953       -0.03506780328668       -0.00205806497426
C            3.19580796533466        0.27420042243588       -0.00269139195253
C            3.80311247444893        1.52603411316780       -0.00212016072683
N            4.35962955840831        2.53350798913118       -0.00390127247843
C            3.91364604942865       -0.96570537410897       -0.00365691463155
N            5.25085135068035       -1.06016816586977       -0.00449281592606
H            5.70250678139612       -1.95724723731010       -0.00518484718850
H            5.81108664027386       -0.22467693172602       -0.00469232100869
C            2.99457291443474       -2.03394328174718       -0.00338769061662
H            3.25465151893310       -3.07525821101517       -0.00381688891478
C            0.69234143526729        0.74583048858450       -0.00110089240890
C           -0.58419281153746        0.18048058126331       -0.00055205763440
C           -1.67787939544168        1.07886277023786        0.00034640058835
C           -1.37191918799657        2.46908923552744        0.00192721598075
N           -1.21432808122659        3.60479037425952       -0.00093090177885
C           -3.05686564830553        0.87256446184643        0.00115761613300
H           -3.66159472919566        1.77306257429148        0.00167329787688
H            0.79694218473554        1.82170152400839       -0.00087474895188
H            0.36072811979567       -3.14125023062633       -0.00190959680832
H           -1.77395044513529       -3.09056274255269       -0.00047162218056
H           -3.97379137717296       -2.42260254137442        0.00092587650901
