30
 energy: -56.506954807321 gnorm: 0.000506466853 xtb: 6.6.1 (8d0f1dd)
N           -5.51884261757283       -2.05097086329535        0.00150250383713
C           -4.46011542135849       -1.60636064765448       -0.00008971275957
C           -3.15830943892091       -1.05627778201108        0.00060497873526
C           -2.11561589082321       -2.01119304189198        0.00213544266945
C           -0.76917672331622       -1.82651239619591        0.00209117035484
C            0.02934177894401       -0.64623283051079        0.00076842525371
C           -0.49745238169845        0.71378184049114        0.00009945304588
C            0.44066413181337        1.79736969657971       -0.00022218607880
C            1.78064812165712        1.58694455167583       -0.00054608092809
C            2.31744933842392        0.23614440534022       -0.00040225750507
C            3.69978205675864        0.33989931457453       -0.00088207499636
C            4.64931832812815       -0.68090776706925       -0.00063128161286
N            5.46917160208399       -1.48709334304794       -0.00191073664984
C            4.03339768986968        1.75448279727839       -0.00143304971987
C            2.89839643631797        2.49407657887606       -0.00113781449892
H            2.81738276438197        3.56379002541138       -0.00126703318521
H            5.04474089540696        2.11807251063444       -0.00181155254184
C            1.41534444257258       -0.84504064512596        0.00041203490588
C            1.95809992102581       -2.15030906896074        0.00066025007068
N            2.41425463681267       -3.20298319781439        0.00172854691336
H            0.06511921929583        2.80987542473896       -0.00039097913407
C           -1.84160411410552        1.09413042673223       -0.00043367388240
C           -2.09339163937567        2.49297598238311       -0.00055004794018
N           -2.38575754965784        3.60385709416674       -0.00177689955711
C           -3.06881900848557        0.33935447451102       -0.00079472256266
N           -4.22578581743302        1.04013616563897       -0.00248162047144
H           -4.23324297179961        2.04547179051780       -0.00324601307132
H           -5.10407012922049        0.54873718439559       -0.00253100249248
H           -0.18528406807629       -2.73894586066002        0.00317874276809
H           -2.45933420764858       -3.03806979200825        0.00328415383380
