30
 energy: -55.727934842559 gnorm: 0.000373786220 xtb: 6.6.1 (8d0f1dd)
N           -6.27486058858916       -0.09021665093968       -0.00564294034045
C           -5.12682946996486       -0.06942646220299       -0.00398328379518
C           -3.71307347918718       -0.06092637655183       -0.00192889112582
C           -3.11931368159089        1.19429873975836       -0.00063046734675
C           -1.78123530876760        1.54446343848996        0.00127216843652
C           -0.61424380008723        0.77536935976511        0.00251132234031
C           -0.57375753462645       -0.69303891034676        0.00194904683146
C           -1.69136871178492       -1.53623774540098        0.00010259169685
C           -3.06840849564774       -1.32781231321930       -0.00159542522062
N           -3.86292559493656       -2.42988891553976       -0.00262177951044
H           -3.45986502280668       -3.34875879033328       -0.00390616218151
H           -4.86367526235623       -2.33927875369515       -0.00515944912253
H           -1.42739305633056       -2.58979422587238        0.00001961019483
C            0.66844903255270       -1.34354804618955        0.00326667502951
C            1.85110228186591       -0.63795416516648        0.00511645161876
C            1.83058923972062        0.82899324579068        0.00572991853107
N            3.05935633492382        1.34029115461448        0.00748274126163
C            3.89890357659277        0.28479565074076        0.00808926746970
N            5.22150228823442        0.45522659268885        0.00981152048120
H            5.58784642645563        1.39128162331054        0.01069696614954
H            5.84072468613598       -0.33646393375628        0.01024844473918
C            3.21063802563515       -0.97248037204181        0.00650718986936
C            3.81135289825251       -2.22371055419170        0.00604745900166
N            4.33631116680333       -3.24858889389754        0.00806350708414
C            0.60655266868655        1.49379551303821        0.00432968398088
C            0.62566924685579        2.90500467623584        0.00409824182736
N            0.65553072742433        4.05239167974815        0.00610845459932
H            0.69955819555730       -2.42405700710540        0.00282645461881
H           -1.60423388418454        2.61396071532221        0.00194442528832
H           -3.81592873413622        2.02444327764775       -0.00124246830706
