28
 energy: -52.266829560244 gnorm: 0.000639661335 xtb: 6.6.1 (8d0f1dd)
N           -5.91627065360673       -0.31617978595797       -0.00162669128542
C           -4.77151398151564       -0.22946333958941        0.00029899527293
C           -3.36025196723343       -0.13844749084138       -0.00067973655235
C           -2.84701636067532        1.17132394697404        0.00018292103120
C           -1.54998989640653        1.61199614675651        0.00047444924168
C           -0.32704140393630        0.90874304460057        0.00017215136252
C           -0.21504810529497       -0.55272451386532       -0.00073077921483
N            0.99225758586289       -1.17780001824628       -0.00097647369814
C            2.07590276025359       -0.47015475150340       -0.00045163103790
C            2.10309418972986        1.01038229243095        0.00040596325045
C            3.42134887257365        1.40481225052825        0.00066149035551
C            4.22719081163851        0.24118417087116        0.00007856696076
C            3.43917956782481       -0.90290403634567       -0.00065317467167
C            3.86992368019072       -2.23057156284876       -0.00158791501820
N            4.22537888152343       -3.32328884526793       -0.00152959490898
H            5.30304920437510        0.24234040323443        0.00010980195525
H            3.78757005774113        2.41427673483188        0.00123223890649
C            0.86062593531422        1.66072077689417        0.00068070880044
C            0.84138557530766        3.07260585505121        0.00063159371697
N            0.86834947143283        4.22003434846192        0.00295329234517
C           -1.24456435123769       -1.47020801396948       -0.00143307521916
C           -2.65111483904704       -1.35322254240984       -0.00145847627541
N           -3.34931697477507       -2.51128922947944       -0.00224162578060
H           -2.86961206605899       -3.39346103604085       -0.00272005735859
H           -4.35515752739743       -2.50408795530609       -0.00220343622385
H           -0.87548923319785       -2.49055955549092       -0.00204398908229
H           -1.43427853735314        2.69052217583908        0.00116308114890
H           -3.60684687673229        1.94368782938850        0.00077677627915
