30
 energy: -54.913367354756 gnorm: 0.000425717321 xtb: 6.6.1 (8d0f1dd)
N           -2.67345379767313       -3.49723222913337        0.14444650416522
C           -2.43108871020595       -2.37458347577069        0.07919590739457
C           -2.20798908944683       -0.98105321584812        0.01015536602706
C           -3.38054175186316       -0.22459928444476       -0.31362837268596
N           -4.45717495580827       -0.92379692655182       -0.76894680317665
H           -5.34549865952310       -0.46215325390056       -0.84641303618640
H           -4.44973059470790       -1.92924288793524       -0.74447809683202
C           -3.52234039812544        1.14165379015069       -0.15102724576912
C           -2.52999729195114        2.05554855396375        0.25723685026790
N           -1.22725637941047        1.91569898275910        0.18141256741574
C           -0.44977718364298        0.86636200364381        0.02906555147867
N            0.81465332282449        1.17577047629548       -0.20840179861191
C            1.73859442383028        0.23939082618450       -0.10239314782591
C            1.43775572771000       -1.14632016190877        0.34139000965609
C            2.64211523828885       -1.83614849133329        0.44591163422927
C            3.66829812206848       -0.96456899173710        0.06957039308686
N            4.98060330515068       -1.23187524429788        0.01911788637319
H            5.62336181659895       -0.51430176231499       -0.27107213674616
H            5.33203806094835       -2.13861183273870        0.27071499053652
C            3.11351680366588        0.32516843845507       -0.28034979399265
C            3.89154694244193        1.39959355280250       -0.69442327289436
N            4.60835024301284        2.23559996974074       -1.03235339945093
H            2.76850407999721       -2.85837512743309        0.74837554686952
C            0.11208146244872       -1.50243762807308        0.46522644327465
C           -0.88672256351735       -0.55235558490772        0.20355421954706
H           -0.16200219452481       -2.52553917654577        0.68679447945909
N           -2.92886637950379        3.27256308755347        0.70961359007269
H           -3.87779492003673        3.57878677883061        0.59343640201004
H           -2.20847865419687        3.96286229327600        0.83551181300956
H           -4.51086664464872        1.54859323171872       -0.32588481100123
