30
 energy: -60.501496824063 gnorm: 0.000825979565 xtb: 6.6.1 (8d0f1dd)
N           -2.24714674201128       -3.63493990319174       -0.41890501888937
C           -2.17466288099225       -2.49958889299020       -0.26675457054460
C           -2.18382514330780       -1.09393213601841       -0.09278400122072
C           -3.45350992848649       -0.46570413568243       -0.22564817602618
C           -3.72430903387141        0.87702877548149        0.04628562035310
C           -2.81626571975557        1.89812298212324        0.34696542737017
N           -1.50306145700869        1.88921430245683        0.13280528813486
C           -0.65124013841705        0.91672069788892        0.01963146920098
C           -0.90765447621314       -0.53509306155258        0.12890787315883
N            0.07551266504037       -1.40723990990137        0.27766260109605
C            1.32825784352076       -1.01277271839229        0.18139023337186
C            1.70363559587573        0.37502228393125       -0.17919635320831
C            3.12211916760851        0.41935855696513       -0.24346718142675
C            3.89904625578571        1.53436133175552       -0.57567627301061
N            4.54731816977091        2.44012468706242       -0.85485773908962
C            3.59480913916943       -0.84951149345879        0.07835785734899
C            2.51480460391281       -1.72805331990629        0.35828396716051
C            2.64034675848865       -3.06750778685602        0.73828663017271
N            2.76628018790079       -4.16256663898848        1.06001675417480
H            4.63227694719090       -1.13085971361245        0.11957872177275
C            0.70724310629105        1.31907528622682       -0.23077719378560
C            0.95834047597087        2.70021362866017       -0.40186843331644
N            1.13425607610600        3.82314011172768       -0.54676810264525
N           -3.27443821667098        3.08832714290737        0.78545072188174
H           -4.25671641319242        3.28116571055413        0.85566966653876
H           -2.61430753780080        3.84294381412589        0.86716439547013
H           -4.76652984533751        1.16809689051060        0.00300508224854
N           -4.49316355722004       -1.25114263704842       -0.58657530257083
H           -4.36220054186813       -2.24000477441090       -0.71801631410458
H           -5.42340266647402       -0.87625751796297       -0.62872548221565
