30
 energy: -55.716783096827 gnorm: 0.000417923103 xtb: 6.6.1 (8d0f1dd)
N            5.92377629904779        0.47279091892189        0.21130919606002
C            4.77660617291014        0.45380240829853        0.14620095946838
C            3.37143811327500        0.40130795424136        0.06321791198593
C            2.68364376012246        1.60853159520465        0.12301351932918
C            1.32109630454054        1.84129991183104        0.04941004138701
C            0.24186876013715        0.95287854530430       -0.02414700704119
C            0.39030004411586       -0.52131495343575       -0.00095769215418
N            1.51062570494346       -1.21607338142318       -0.05862697950834
C            2.78342554912174       -0.89542906306462       -0.08860507930563
N            3.60301392414052       -1.95542683080385       -0.25853155843626
H            4.60293278288818       -1.86054710489251       -0.22581865025024
H            3.17903576884983       -2.86624676920404       -0.30260599809317
C           -0.76332536067656       -1.33061705447029        0.06332327972770
C           -0.59469496578024       -2.72965638114518        0.11278567785056
N           -0.48393703805133       -3.87132605077433        0.15552265694400
C           -2.04814697967804       -0.78358783330905        0.04828034811116
C           -2.19943355989474        0.68621807176559       -0.04182863977923
C           -3.54398674311360        0.96842013586297       -0.06433763515203
C           -4.24005197441148       -0.27237418597035        0.00960276735588
N           -5.57276368476575       -0.40310335827655        0.01305341876721
H           -5.99509007602658       -1.31346946477820        0.06595374572034
H           -6.16469376842678        0.40738472279399       -0.03798086968017
C           -3.30995668521572       -1.33715489918956        0.07793937075212
H           -3.55209688397515       -2.38032069335181        0.13897467569968
H           -3.99998976717705        1.93778566857202       -0.12460092748182
C           -1.05497610032027        1.49748349683396       -0.07038752954375
C           -1.25200975149745        2.89169136975522       -0.13141113250665
N           -1.45142618881868        4.02203481103182       -0.18346238967893
H            1.03861790144683        2.88796157582465        0.07807327223808
H            3.30672752469000        2.48914656564698        0.22490264491439
