27
 energy: -53.334682981739 gnorm: 0.000840503959 xtb: 6.6.1 (8d0f1dd)
N            6.07300103090825        0.28772929587813        0.00024446654392
C            4.93303258791376        0.17999616045968        0.00064771772890
C            3.51848228424283        0.04514661647395        0.00026678053256
C            3.01853401646092       -1.24529262536887        0.00067084634252
C            1.68629221499220       -1.65353148215321        0.00070086693682
C            0.48735439563245       -0.94874817651139        0.00038187440469
C            0.33101143710212        0.51750405903994        0.00012385864175
C           -0.94301769242380        1.07696379012079        0.00003677755639
C           -2.07729354255775        0.28202033378056        0.00007173262575
C           -1.94655571197018       -1.17934132637206        0.00016213158093
N           -3.15576155793340       -1.77170008570095        0.00015745540784
C           -4.04277091311750       -0.79210888722545        0.00015813085010
C           -3.45602101254444        0.50721936651200        0.00040480918901
C           -4.12796423992111        1.73025903080417        0.00187337302383
N           -4.67547709621719        2.73972496927836       -0.00164803317022
H           -5.09593937281471       -1.00884806627140        0.00038137029863
C           -0.69049180569939       -1.75546841049515        0.00044845497251
C           -0.60832179813725       -3.16866126754027        0.00165904902045
N           -0.54974635240581       -4.31333081282446       -0.00021725961351
H           -1.05833881064230        2.15162168684793       -0.00003432939401
C            1.42516785938382        1.43429657602375       -0.00006779054877
C            1.09337249923999        2.82257544907258       -0.00163481583972
N            0.91338530556238        3.95352618807709        0.00044117684590
C            2.79373442226838        1.25030393646261       -0.00009033884967
H            3.39283620626290        2.15451170405904       -0.00034646360261
H            1.56408988047191       -2.73141477069248        0.00095371773051
H            3.75409708624291       -2.04001793863488        0.00097180588548
