29
 energy: -56.784735609800 gnorm: 0.000437613121 xtb: 6.6.1 (8d0f1dd)
N            5.97855518107283        0.50922281082702        0.28055344113237
C            4.85351408481993        0.29038611255473        0.20624772632865
C            3.46863825361459        0.04891499666440        0.10333361349914
C            3.03839568227776       -1.28401500655221        0.24473670599566
C            1.77159113922499       -1.79607138351251        0.13991839825014
C            0.52109755827138       -1.14470352475557       -0.01348011179462
C            0.38570939643906        0.31658969075374        0.02394193840113
N            1.31526825398358        1.21818420781193       -0.06895452496392
C            2.64351428353156        1.16875136632564       -0.15769488310099
N            3.19539458229687        2.35631188607505       -0.46124739079164
H            2.58231764234935        3.14892893589671       -0.55695285405392
H            4.19300070522566        2.48262005440370       -0.48456223003080
C           -0.93700978149446        0.89525207822260        0.12800058457885
C           -1.00400464381437        2.30455105062823        0.23590352441650
N           -1.02589142929132        3.44667572966603        0.32329277853040
C           -2.04924601635086        0.10426104591283        0.05679482424784
C           -1.91925415561796       -1.34808294472729       -0.09065097719265
C           -3.18805099371643       -1.87841450729667       -0.16135386682579
C           -4.12191075853703       -0.81321544542319       -0.06191328918382
C           -3.45730053866642        0.39335059035841        0.07037785913137
C           -4.03627702385590        1.65946795707473        0.19267913974872
N           -4.53390836301754        2.69004444635185        0.28994233632129
H           -5.19044730597265       -0.92888393294664       -0.08579060255575
H           -3.43962714894545       -2.91618744902071       -0.27114483090975
C           -0.63356510664844       -1.92725260053573       -0.09986324336271
C           -0.54960198733753       -3.33358169314191       -0.18316105062934
N           -0.50657320744807       -4.47805510432269       -0.25716858216260
H            1.69847829362823       -2.87429224687160        0.22633732657182
H            3.83197303917839       -1.99848686992094        0.42480724860436
