27
 energy: -47.747630099583 gnorm: 0.000701232071 xtb: 6.6.1 (8d0f1dd)
N            5.54142196062795        0.57957170463545        0.01720708033279
C            4.39433865088420        0.54689635045941        0.00967027122366
C            2.98003856531598        0.49896499262283        0.00117846421386
C            2.34068951732265        1.73439031084870        0.00386954310358
C            0.98923786892224        2.02882111965319       -0.00229600693052
C           -0.14869606634059        1.21887058435182       -0.00560130527342
C           -1.38073377585400        1.89268581648546       -0.00910963121874
C           -2.57336418448268        1.21017957182342       -0.00488071382849
N           -3.82539637165059        1.68201336366379       -0.00467442068458
C           -4.61579424895659        0.60055883047822        0.00380357898074
C           -3.92142246107384       -0.61801470283190        0.00911447874131
C           -2.57998779699590       -0.26898694000485        0.00344336480489
C           -1.36361177302545       -0.95153368888096        0.00264408683746
C           -1.40403360614286       -2.35979466674848        0.00923131936741
N           -1.46497878235401       -3.50757330509823        0.01435826279344
C           -0.12808544236555       -0.25668125270020       -0.00322373682795
C            1.01409340774253       -1.05163044386670       -0.00859895875886
C            2.38815796516659       -0.78837469219723       -0.00865957053912
N            3.21542388461638       -1.86504792833504       -0.02018434111654
H            4.21325929707222       -1.74666901397517       -0.00387033816578
H            2.83796540923194       -2.79511013856804       -0.00828770772452
H            0.79732397473916       -2.11654954532456       -0.01202667131656
H           -4.34612226881694       -1.60216769408332        0.01630254321109
H           -5.68492842773251        0.72643709556146        0.00597735914796
H           -1.39419511585870        2.97227951464276       -0.01320243880264
H            0.76933010369421        3.09021412509385       -0.00253423589575
H            3.00723222061416        2.58855325929421        0.01079529202518
