29
 energy: -51.201260177930 gnorm: 0.000780672563 xtb: 6.6.1 (8d0f1dd)
N            4.63035636207235        2.69082828615157       -0.07095517217719
C            4.08511862952903        1.67720233129910       -0.04635721972095
C            3.39703110426316        0.46766822917044       -0.01839852051202
C            3.92057792493134       -0.81633151606151        0.00607661937881
C            2.87722127237405       -1.77044614426447        0.02805888591831
C            1.67495277220425       -1.09591685517202        0.01723172214023
C            1.96627352797184        0.33990860224351       -0.01132187450350
C            0.96750484083289        1.25633327871528       -0.02241264685995
C           -0.40620991147741        0.85827336308119       -0.00728839411979
C           -1.32453454271000        1.87631521510217       -0.00402750378926
C           -2.75373845325947        1.86184619255355        0.01135770066171
N           -3.58470941232626        0.85095463914428       -0.00085663213719
C           -3.27741088879193       -0.45122300055286       -0.01226696929753
N           -4.38083404764676       -1.24325789949060       -0.00691333014504
H           -4.30502256205918       -2.23811424798857       -0.10911466614562
H           -5.27865546099487       -0.80199107802537       -0.08850927500847
C           -2.03269253796437       -1.08315271749534        0.00114236400900
C           -0.72543026904626       -0.57754506073784        0.00864952491836
C            0.32894162256318       -1.50759990504945        0.02405829568905
C            0.06607495244813       -2.88946868136528        0.04359131073022
N           -0.12568858319935       -4.02306638857105        0.05795758245495
H           -2.09075979029942       -2.16617395500699        0.00542649022998
N           -3.35582089571022        3.07522265234447        0.01558415838354
H           -4.35830355982983        3.10541295385827        0.06816413615477
H           -2.83031711506022        3.92555840915501        0.09659018270077
H           -0.90557760482817        2.87691310463893       -0.01416914522639
H            1.19663213384198        2.31299519052116       -0.04033297039232
H            3.00983822294630       -2.83575458328125        0.04913196319639
H            4.97015491942527       -1.05298819711641        0.00803510506915
