25
 energy: -48.298420002660 gnorm: 0.000720339711 xtb: 6.6.1 (8d0f1dd)
N            5.70671605234485        0.75857940842610       -0.71336736703232
C            4.58213823023410        0.66799008972626       -0.50044217183271
C            3.20837132006917        0.52059980016455       -0.21649155042024
C            2.39901528792767        1.63875897344706       -0.28828361786885
C            1.03863932433425        1.73529113458188        0.00382148523479
C            0.08098942934163        0.73525310260970        0.09342003256649
C           -1.26810386849483        1.09411042089115        0.28790543614424
C           -2.23466702339491        0.13758273759361        0.12496873874603
C           -1.82199799642362       -1.20811502227192       -0.37806317030406
N           -2.88833653865521       -1.93167140475229       -0.70090427252667
C           -3.95741433916119       -1.18152876616179       -0.40997744894253
C           -3.64276103110500        0.10107181382427        0.07613166892727
C           -4.52566469692903        1.11554448027181        0.44380140046297
N           -5.23264003287626        1.97069390281704        0.74387053670897
H           -4.94660562350425       -1.57644839304591       -0.56267476500337
N           -0.56506641434543       -1.57384254507768       -0.45551835173945
C            0.38072495430517       -0.71157101006517       -0.12368899486671
N            1.55922978050009       -1.25798590708894        0.08723839062310
C            2.76977693096706       -0.78909085180381        0.20499786007852
N            3.68766810146390       -1.64592916384180        0.68807590814481
H            3.39026895097021       -2.58722295158006        0.88270416291598
H            4.66854634821916       -1.42350009154080        0.67959468635009
H           -1.52332493241706        2.12767351464436        0.48549721830295
H            0.65962838081825        2.74732138545020        0.09865012569003
H            2.89945340141043        2.56702933788083       -0.53816684725954
