28
 energy: -47.469591280385 gnorm: 0.000735669965 xtb: 6.6.1 (8d0f1dd)
N            5.85776264905812        0.67758016331539        0.00173159252995
C            4.71282050169654        0.60859690391009        0.00124685909260
C            3.29888268655083        0.53352074253771       -0.00004670971595
C            2.61678635120253        1.75493673106237       -0.00009656742445
C            1.25649360482958        1.97311707378138       -0.00014573368600
C            0.15134903760673        1.10669278634080       -0.00041194357332
C           -1.09822282713695        1.72269505285068        0.00120585632866
C           -2.28227276016743        1.00241276859141        0.00194256996584
C           -2.21879511749279       -0.47238413628656       -0.00094072836843
C           -3.51557757735819       -0.94855733196212        0.00259537189029
C           -4.38072189287389        0.17128317674240        0.00932650525812
N           -5.72589618381944        0.11214711089091       -0.00240456918006
H           -6.19164449661422       -0.77488927664931        0.06809684464502
H           -6.26992324004038        0.95295002701088        0.07335700360754
C           -3.61612697098309        1.36382929441709        0.00742908857276
H           -4.01708155149154        2.35957089680914        0.01069854129095
H           -3.82601365110553       -1.97583821564741        0.00176917941763
C           -0.97897351837716       -1.09483047263778       -0.00319853764544
C            0.21129053212187       -0.37563346452323       -0.00199114339765
C            1.41321621152362       -1.12688423924625       -0.00151630487475
C            1.28391030295189       -2.54307359144124       -0.00022878888453
N            1.26591926267067       -3.69021349494908        0.00016996522915
C            2.75356779171501       -0.74843393380888       -0.00061040058195
H            3.46858519177215       -1.56415258907220       -0.00008684080023
H           -0.94166795031743       -2.17516002055708       -0.00512503589795
H           -1.14470424220706        2.80338694077668        0.00242381047181
H            0.97938707902141        3.02188684544883        0.00042121334555
H            3.24547237066413        2.63709943419539        0.00042399158487
