27
 energy: -52.542802275274 gnorm: 0.000136698440 xtb: 6.6.1 (8d0f1dd)
N           -5.74356832511565       -1.50630150115948        0.00039927658539
C           -4.62935127934845       -1.23139965378091        0.00022260167942
C           -3.25912053412751       -0.87777462093971        0.00009357859362
C           -2.36250476810845       -1.95873130437415        0.00123746289060
C           -0.99487178599672       -1.95838373196545        0.00141523426799
C           -0.05354325945160       -0.90197807222835        0.00053735584369
N            1.19510269706416       -1.33781700914690        0.00112905166083
C            2.18862347519292       -0.46544944782227        0.00037528973044
C            1.97702183832307        0.99598916670385       -0.00110285444541
N            3.16189839063734        1.65249338838028       -0.00161811440136
C            4.08812351180744        0.71751160396921       -0.00056085707099
C            3.57310744741027       -0.61843517293617        0.00072622873863
C            4.32443423909145       -1.79293724625016        0.00200905990631
N            4.95932785187503       -2.75035768749458        0.00303224520092
H            5.13065387371664        0.98337810435015       -0.00068818061601
C            0.68887168898238        1.46863338337380       -0.00168100101017
C            0.44155226678594        2.86032380502793       -0.00307742901004
N            0.22433212339155        3.98648197239348       -0.00404062805489
C           -0.40230560898550        0.52451825850860       -0.00088749712368
C           -1.67003032581416        1.06447872742199       -0.00157519043911
C           -2.96526801672986        0.49965024484928       -0.00118134866541
N           -3.99447468769800        1.37509739262563       -0.00214436374867
H           -3.82483597423212        2.36540582221010       -0.00304915841481
H           -4.94571987400362        1.04732059607400       -0.00196412987901
H           -1.68959553331096        2.15134627419840       -0.00264608243617
H           -0.50864377351701       -2.92576361355838        0.00237691908900
H           -2.83893914403859       -2.93191101453021        0.00211547532891
