25
 energy: -49.077930314952 gnorm: 0.000555557830 xtb: 6.6.1 (8d0f1dd)
N           -5.00510406506205       -1.55542538024199       -0.76736482646898
C           -4.18157077785012       -0.79413307868641       -0.52136622016008
C           -3.18130976938106        0.13393912220159       -0.21731116205009
C           -1.77531950454014       -0.15324778703369       -0.13729417812367
N           -1.16406881087950       -1.28205803671314       -0.26129682838581
C            0.18104448741596       -1.32590260922719       -0.06517070474190
C            0.64693154175155       -2.60418966942523        0.14544491723386
C            1.94717156237922       -2.98535292642849        0.56446523604174
N            3.06353707120353       -2.37913517827547        0.34368399480356
C            3.24905022741340       -1.18939726027593       -0.21453015880806
C            2.38535344046775       -0.10658885948775       -0.24456944313054
C            2.98667510432263        1.09321363533332       -0.70542141595913
N            3.52260002982939        1.99201618324170       -1.17346369898510
C            0.98018332510248       -0.09109092647964        0.03552961369678
C            0.30567355134024        1.11111877534849        0.23893859752699
C            0.96310735068644        2.32938811256082        0.52853764564991
N            1.40037274057346        3.33665300076462        0.85855839211791
C           -1.10464797419820        1.12400812231850        0.20440594346051
C           -2.07451445497159        2.08252312607068        0.33803749181722
C           -3.33633582316360        1.47619802408240        0.07534534974133
H           -4.27784757558298        1.99545187332981        0.10125683746756
H           -1.92567214819694        3.11578640187956        0.58910930218425
H            4.26268538946573       -1.03039332222578       -0.56692368828348
H            2.04193465078163       -3.93549828235335        1.08004002788752
H           -0.11114593370556       -3.37567229947374        0.10058521817141
