26
 energy: -48.021343753564 gnorm: 0.000921795139 xtb: 6.6.1 (8d0f1dd)
N           -5.60139951933497       -0.46667701526874        0.97872309858108
C           -4.52929496698637       -0.19620970308148        0.66828888889995
C           -3.21165735356397        0.09737696734655        0.26248302018905
C           -2.77135914553473        1.38818454731948        0.34163845421775
C           -1.50689011402944        1.90144852786629       -0.01380718817089
C           -0.32228128611848        1.23568314584949       -0.22243961846525
C            0.86262738923275        2.01804909692667       -0.40066791958353
C            2.06890483513234        1.42802540444955       -0.21989254662531
C            2.11211430424400       -0.00850604463785        0.10526537321410
N            1.02178991883378       -0.78021754880148        0.10992648040263
C           -0.14542674790704       -0.23485012830733       -0.09505658201355
N           -1.14122177106854       -1.11276992701091       -0.27842016248853
C           -2.42308278899404       -1.02338523624771       -0.26337674767139
N           -3.11512940791713       -2.08108264853116       -0.73629709985425
H           -2.58491610161886       -2.89447982281603       -1.00101784159519
H           -4.10575627182729       -2.16651909076942       -0.58510266726975
C            3.44019277294649       -0.34652656083471        0.28173345822582
C            3.97318488212932       -1.59424552731859        0.59940113401188
N            4.44597064057229       -2.60861350862595        0.86353528801480
C            4.23277949446062        0.85537728709443        0.06678034662499
C            3.42594136436872        1.90060020244270       -0.23709838713064
H            3.72179699157267        2.91145587393510       -0.44514700062964
H            5.30533901055446        0.87002798818571        0.14387300231604
H            0.76388863567160        3.07495679728232       -0.61513876686129
H           -1.44751115195307        2.98507312119260       -0.02487507422087
H           -3.48893135326593        2.12042897665943        0.69478460838292
