25
 energy: -44.303054039401 gnorm: 0.000859082176 xtb: 6.6.1 (8d0f1dd)
N            4.94415948791854        1.56571914784825        0.00006878267560
C            4.12424748497568        0.75907778555516       -0.00059008661659
C            3.10463055635357       -0.19260582512754       -0.00013816851021
C            1.71472365942472        0.09689201784303        0.00016026727013
C            1.01513204959823       -1.20762886858944        0.00056985653810
N           -0.30675698114733       -1.29422093131911        0.00071556649172
C           -1.03587128361403       -0.19493808419106        0.00055562492787
C           -2.43244908364859       -0.46877502822115        0.00060125925583
C           -2.73375838301919       -1.86172473853361        0.00172142692741
N           -3.05829625249422       -2.96033033000561        0.00115264799769
C           -3.53690674293096        0.36299414204678        0.00071532990670
C           -3.57030577090511        1.75880351628850        0.00062194838175
C           -2.50942415311843        2.63646128178685        0.00031168285281
C           -1.14013527700608        2.35685761847101        0.00017509206072
C           -0.44502733611333        1.15825816268025        0.00032243657996
C            0.97221657509321        1.23994317676625        0.00008388286998
H            1.44463800305947        2.21417939789332       -0.00023737942869
H           -0.50542894120924        3.23747340851394       -0.00005015189863
H           -2.76286876891394        3.68877520404837        0.00011912386969
H           -4.55869960021602        2.20055345761074        0.00081086236277
H           -4.49710942249023       -0.13859851376925        0.00087858895090
C            1.97814922792819       -2.20283470668545        0.00061244064865
C            3.23843907569381       -1.58514488787720        0.00025715039355
H            4.18106279425940       -2.10407408791308        0.00029041076200
H            1.79386902642190       -3.25909538821993        0.00079185963025
