27
 energy: -46.943714441756 gnorm: 0.000455507469 xtb: 6.6.1 (8d0f1dd)
N            4.54735307468703        2.23688368327559        0.52559137970045
C            3.93682703121174        1.27661674490359        0.35303734737329
C            3.21949375520847        0.10181338723976        0.14165698081724
C            1.83340954275611       -0.03977709053041        0.07045277975888
C            1.55660127904285       -1.48224285737104       -0.16453177790741
C            2.80206972846479       -2.13749537021938       -0.23399892733725
C            3.78794367293557       -1.19453177393188       -0.05311792368050
H            4.84794820670446       -1.38282674274737       -0.05092680066703
H            2.94774506546603       -3.18849814976253       -0.39952231800655
C            0.25176126559596       -1.88699431032685       -0.20769354638600
C           -0.78393711616709       -0.93532732152159       -0.04333523245194
N           -1.99294365213900       -1.44156567757639        0.00089696464874
C           -3.18262948022058       -0.86256077767155        0.10834251038429
N           -4.19025570992734       -1.77130317190709        0.24304933486394
H           -3.92107677629879       -2.72528462018428        0.40673448783971
H           -5.11579843165244       -1.47902029550666        0.49734765836793
C           -3.53303935350915        0.48623566067581       -0.01719090931748
C           -2.68341365973910        1.58969164264626       -0.08891914297392
N           -3.25873337357306        2.82457461292192       -0.17952162423112
H           -4.23364594423483        2.90243312378041       -0.40769885938407
H           -2.67515107886714        3.62081154649665       -0.36457005664157
C           -1.28478604622948        1.55783400271441        0.01357684632664
C           -0.39060192145160        0.49425801143137        0.07640742867357
N            0.88412405359610        0.86987169091244        0.16544023457922
H           -0.78762593624530        2.52122259560177        0.01245381167259
H           -4.59563938589132        0.69432976951135       -0.05817654753743
H           -0.03127029712284       -2.92384401625446       -0.32140825748426
