30
 energy: -55.725059841773 gnorm: 0.000539897654 xtb: 6.6.1 (8d0f1dd)
N           -5.87301534982587       -1.61316330335181       -0.00273136367240
C           -4.76234338519118       -1.31999212045241       -0.00255128407440
C           -3.39596897458709       -0.96104298241386       -0.00155177025600
C           -2.50570506249324       -2.04584618227184       -0.00192679461458
C           -1.13915250560760       -2.05169113141563       -0.00135250075534
C           -0.18813951438792       -1.00554979219965       -0.00010792863272
C            1.14135523816874       -1.40960022009969        0.00024196013701
C            2.18004450344955       -0.49101982377808        0.00152379806079
C            1.86745845627748        0.93934186245825        0.00253865768256
N            2.98678336923051        1.68968992052249        0.00375170058727
C            4.00212054646940        0.83034962240682        0.00360940662579
N            5.27616117398805        1.22572856493869        0.00464642742850
H            6.02149444199741        0.55125802405936        0.00451788801676
H            5.47942143491793        2.21008548874862        0.00558341933243
C            3.56892177187634       -0.55812035314933        0.00228699282169
C            4.41779490519125       -1.65437948431823        0.00210009941195
N            5.15799258783529       -2.53706315675291        0.00104869998996
C            0.55918596066360        1.35286016291762        0.00219420511156
C           -0.50707907299330        0.43122250849550        0.00087776814505
C           -1.79977195788030        0.99080445976722        0.00062447683649
C           -1.85166058466861        2.41007051458660        0.00186897105050
N           -1.99517564672208        3.55030090728703        0.00223148992491
C           -3.10630154278238        0.41654510550619       -0.00050886434009
N           -4.16447367891937        1.26312224096927       -0.00058842088116
H           -4.03395104929380        2.25972891308047        0.00034466671483
H           -5.09974101047870        0.89320134229653       -0.00116405747037
H            0.35774944113200        2.41243060177416        0.00295734461530
H            1.37285350310251       -2.46541238890149       -0.00047256957736
H           -0.69277734105262       -3.03897066455155       -0.00189855822947
H           -2.98842919851601       -3.01587948825838       -0.00284145958945
