28
 energy: -57.065431084125 gnorm: 0.000376160714 xtb: 6.6.1 (8d0f1dd)
N           -6.42260519894109       -0.80885467978973        0.00118491870616
C           -5.29890190074438       -0.58222269325703        0.00157274579806
C           -3.91041207971794       -0.30988633320531        0.00067292787136
C           -3.05061846772991       -1.44662896056899        0.00044482174420
N           -1.76550233981852       -1.52157906137861        0.00001441739312
C           -0.80860802201824       -0.58324076571152       -0.00042428182038
C            0.48153088588904       -1.12771815718929       -0.00066520556901
C            0.63911207753971       -2.53390571046424       -0.00013122818445
N            0.80716161851443       -3.66705184237711       -0.00088262876068
C            1.61325013404392       -0.30237685449128       -0.00118385265528
C            1.44111006616280        1.15640275723116       -0.00139923785020
N            2.61726785707084        1.78926177486863       -0.00190657577866
C            3.55354828118489        0.83326810646057       -0.00199056487796
N            4.85110950413417        1.11110920600900       -0.00242685978767
H            5.14284126474024        2.07438522983229       -0.00276558056671
H            5.53343823555648        0.37108522641327       -0.00245352228406
C            2.98323612812318       -0.50368214618860       -0.00148149077701
C            3.74662165649634       -1.66831533543849       -0.00142925610854
N            4.45443741757250       -2.57384207403765       -0.00214525542100
C            0.16732439922159        1.70922832126975       -0.00106804738334
C            0.05399246870073        3.11822606954694       -0.00086440340987
N           -0.03483856868226        4.26144361223087       -0.00186857311520
C           -0.98764921565747        0.88311795196630       -0.00060976461804
C           -2.22353701561694        1.52986388692315       -0.00022868506893
C           -3.51822134712436        1.01902956384788        0.00037843726527
H           -4.31502048659371        1.75332878107362        0.00064924365389
H           -2.16626700929444        2.61276430714414       -0.00038145229340
H           -3.54268769921158       -2.41588050331967        0.00068998119826
