26
 energy: -48.027085476559 gnorm: 0.000992128394 xtb: 6.6.1 (8d0f1dd)
N           -5.76555711415323       -1.04253267741663       -0.00002492164649
C           -4.63947948524875       -0.82054133351920        0.00164776332251
C           -3.25563523292834       -0.52777636552849        0.00029111135591
C           -2.41043749656096       -1.64727413808833        0.00348806856168
C           -1.03995570365749       -1.71720809941235        0.00398018811431
C           -0.05485220147338       -0.71171011050228        0.00152670330936
C            1.28060159098565       -1.12435653706912        0.00299277913762
C            2.28205119930160       -0.17588974978442        0.00069694856772
C            1.88742340247598        1.25484197259431       -0.00327388163669
N            2.97926548044702        2.04811640767433       -0.00516964609360
C            4.01809387105387        1.23566672379272       -0.00274421019196
C            3.67786687338286       -0.14950659600100        0.00091429200651
C            4.55495595934840       -1.23125389902305        0.00381010136738
N            5.26632135035476       -2.13480375161765        0.00725347740750
H            5.01884027502534        1.63183402144091       -0.00357084526181
N            0.64954538246441        1.65289955555236       -0.00468377550847
C           -0.33693679187059        0.73088239021073       -0.00244483766780
C           -1.58361343979163        1.33171516049067       -0.00435174302949
C           -2.90064062067196        0.83692374547597       -0.00329194281436
N           -3.89170680062277        1.75816898823545       -0.00592006456371
H           -3.67155926732672        2.73781921399116       -0.00856378422550
H           -4.85692893221976        1.47564786462294       -0.00542228719824
H           -1.50609817009043        2.41385204972128       -0.00726018310766
H            1.51812875633571       -2.18010871087339        0.00592557472488
H           -0.63586694283194       -2.72359986735492        0.00680547332132
H           -2.93260928982769       -2.59699161231196        0.00598739064905
