26
 energy: -48.025061521645 gnorm: 0.000938672564 xtb: 6.6.1 (8d0f1dd)
N           -5.84237813291870       -0.12118824183816       -0.00155727350844
C           -4.70000197837494       -0.01174544143732        0.00140403492891
C           -3.28918477531360        0.11456484384494       -0.00034902576480
C           -2.81349271592915        1.41743671835122        0.00051944807260
C           -1.50914708467322        1.88931474201425        0.00067889640878
C           -0.28879616512453        1.22070406996873        0.00014727299659
C            0.87665626304606        2.01982710869899        0.00070397350620
C            2.10261888065268        1.41362940984352        0.00022011817648
N            3.34824430528974        1.93103635181055        0.00054139201099
C            4.17029396312325        0.89262699028426       -0.00015537657267
C            3.51859984849134       -0.37076204241224       -0.00091366087092
C            4.12959078859410       -1.62355414664647       -0.00126115551123
N            4.64383927251764       -2.65140120767626       -0.00348208672445
C            2.15361604075165       -0.06621764386914       -0.00084589427627
N            1.07606293245322       -0.82476775735699       -0.00133360820438
C           -0.12276250703198       -0.24482961114366       -0.00091644142050
C           -1.15559410383542       -1.18826146189564       -0.00157156633805
C           -2.54533354431031       -1.09952640366984       -0.00137044463064
N           -3.24174076645521       -2.26224190401147       -0.00213639461130
H           -2.75452743587465       -3.13997450267698       -0.00257579334071
H           -4.24694014454905       -2.26320146941604       -0.00175837141517
H           -0.76242728052336       -2.19958350436958       -0.00232288150601
H            5.23583047904439        1.04550888964837        0.00002018526741
H            0.79064345781771        3.09706158473545        0.00153603033251
H           -1.42481894021133        2.97061541587174        0.00150454813381
H           -3.58406336375631        2.17983066474776        0.00132092906127
