27
 energy: -47.744553334274 gnorm: 0.000725751903 xtb: 6.6.1 (8d0f1dd)
N           -5.48964943313664       -0.38370187156386       -0.27355503306190
C           -4.34652294658129       -0.45163089831381       -0.17714112245121
C           -2.94371114204029       -0.50772686790831       -0.05842122584445
C           -2.35498449466220       -1.73925896159237       -0.06642418404792
C           -0.98631350316198       -2.06746422116613        0.02899674265191
C            0.12691484930861       -1.25749390814621        0.06206420455192
C            1.39590644889345       -1.92607996769250        0.09971223593238
C            2.55846931860483       -1.23619410606305        0.04318237742842
C            2.56092527960807        0.22429568671309       -0.04069518080397
C            3.86158597619247        0.63639561534290       -0.08844074752157
C            4.70357345144812       -0.53742186172989       -0.03791331622447
C            3.94007640511771       -1.65479688543952        0.04102032365448
H            4.27057726017601       -2.67446114836575        0.09208895845089
H            5.77803349843802       -0.50079850244200       -0.06076137314116
H            4.21651402595912        1.64792703935262       -0.15049478699645
C            1.31436806129432        0.90222581383503       -0.03412335770066
C            1.28755936491831        2.31094867022870       -0.07788921759128
N            1.28827017409140        3.45806010201749       -0.11546567468491
C            0.11397551239470        0.21044322530415        0.02544361807377
N           -0.97925405736840        1.00690955623214        0.07495186795818
C           -2.24338171405973        0.78043934402994        0.07609335260607
N           -3.03165143307794        1.87046776117925        0.21983114409186
H           -4.03016878786543        1.82121806924072        0.11948163042122
H           -2.57263525853264        2.76480841223332        0.25161468861449
H            1.39560111546191       -3.00664492441336        0.15794119678828
H           -0.78941985597145       -3.13353973998516        0.04631957498946
H           -3.02600675844870       -2.58703344438687       -0.15251346184349
