25
 energy: -44.303482607355 gnorm: 0.000801930535 xtb: 6.6.1 (8d0f1dd)
N           -5.99217196744611       -0.73180891420671        0.00030567580748
C           -4.86646635218610       -0.51782603944059        0.00046650936496
C           -3.47261563754094       -0.24927398135673        0.00022732864880
C           -3.11255441435615        1.08659975790430        0.00002047575633
C           -1.83247238072624        1.64095079847180       -0.00004715989211
C           -0.57629455202934        1.05516260629689        0.00008326555988
C            0.53710140657442        1.93764429002967       -0.00000974098865
C            1.80474158790914        1.43552028829203        0.00006202873539
C            1.96818508560035       -0.03448035114753        0.00027261889778
N            0.93993578329525       -0.86884676673022        0.00049841633787
C           -0.28969882764680       -0.39338306796311        0.00032857349516
C           -1.26649923790474       -1.42066597109745        0.00045490701954
C           -2.63216587058079       -1.38499894195853        0.00042489270116
H           -3.14661133999405       -2.33798258188041        0.00059654463097
H           -0.80657583954625       -2.40177466007148        0.00061466306785
C            3.33403425117578       -0.29392157262609        0.00079236058173
C            3.95779400436112       -1.54200281176475        0.00269346915929
N            4.48942681911378       -2.56135357559105       -0.00089847070327
C            4.01055462711750        0.97202652736983        0.00030800092029
C            3.10414678142029        1.99968587223762       -0.00000049946466
H            3.32766820143978        3.04991597215251       -0.00003653894196
H            5.08179352290699        1.07027174264680        0.00062391186799
H            0.35734521966467        3.00545120730783       -0.00015874207288
H           -1.82146877565778        2.72639819404777       -0.00019836701118
H           -3.93174242116377        1.79592948377759       -0.00008911457772
