29
 energy: -56.001083384420 gnorm: 0.000851537088 xtb: 6.6.1 (8d0f1dd)
N           -5.88334423697671       -1.52125818146105       -0.00300549346336
C           -4.76321853261246       -1.26768769364571       -0.00274359558485
C           -3.38528316243762       -0.95256702588253       -0.00196982262998
C           -2.52840859444054       -2.06443050409205       -0.00497022726866
C           -1.16063887710763       -2.12699202878806       -0.00527758757674
C           -0.18210697280483       -1.11100723690063       -0.00273936134651
C            1.15399587505992       -1.51016466814782       -0.00389486930752
C            2.15256825919617       -0.55380755867437       -0.00153899012350
C            1.75139178250249        0.87397569769804        0.00214367841500
N            2.81535699797988        1.67972544485661        0.00410516060707
C            3.88465643051517        0.87841497314136        0.00196129782753
N            5.12457310383541        1.36109014610678        0.00307639752012
H            5.25407678921651        2.35848131839000        0.00560170905830
H            5.91709092870005        0.74187191842881        0.00142022898971
C            3.54161275275978       -0.53049034696253       -0.00159455165292
C            4.45600837980738       -1.57433512520565       -0.00425408784572
N            5.24156329227316       -2.41627269780159       -0.00646822390496
N            0.50046684878038        1.25268132591004        0.00324543737843
C           -0.46986133177368        0.32610105069433        0.00098848701492
C           -1.73343668974809        0.93442575192998        0.00271286129787
C           -1.64664879274828        2.35494371071358        0.00633695872333
N           -1.70251293003766        3.50161942656240        0.00925367902843
C           -3.05744604709012        0.41880153131015        0.00157041085674
N           -4.07134749432999        1.31104865122027        0.00404086327066
H           -5.02611972142174        0.99407846382931        0.00334315172177
H           -3.87812797677377        2.29856081166503        0.00657813472979
H            1.40088387958494       -2.56353652216373       -0.00662147402050
H           -0.74756348098519       -3.12934313964743       -0.00794144718570
H           -3.04513134682304       -3.01729108548357       -0.00740315042879
