28
 energy: -51.473369429844 gnorm: 0.000691424379 xtb: 6.6.1 (8d0f1dd)
N           -5.19574337679626       -1.89997650504900        0.44073604982546
C           -4.48975616734348       -1.00537435491261        0.27838461483096
C           -3.60130788034261        0.04838404273712        0.08324933066732
C           -2.16264754711294       -0.08805634280562        0.07129726550818
C           -1.61683103536847        1.26144384970161       -0.15286152593575
N           -0.30211411930729        1.49276940002833       -0.18374045995695
C            0.53774476571739        0.49300357917846       -0.05571041534533
C            1.90562560114448        0.89664698432865        0.01391239719984
C            2.09509925320137        2.29612545577968        0.01768025715188
N            2.34698470283790        3.41766325906037        0.02849243540714
C            3.08058482380295        0.12790836917442        0.10341791915397
N            3.23465054981270       -1.19288141920360       -0.04411464135035
C            2.31818007770787       -2.12070269943687       -0.11112728279965
N            2.79632644996641       -3.36661675605178       -0.32259896995431
H            3.78566148117367       -3.48214102329009       -0.45269562421547
H            2.18686986440124       -4.15884872612828       -0.41020423018579
C            0.89914561510585       -2.01529608404014        0.05904096573633
C            0.09812081116215       -0.90912870759570        0.07564541361532
C           -1.31845930918008       -1.13513110105172        0.18380652656521
H           -1.67568437311618       -2.14821321611752        0.31967519843171
H            0.39243654266847       -2.97102908165264        0.14788597635822
N            4.25502966911956        0.76343025069852        0.31630478230006
H            4.29862740945309        1.76681186198721        0.35356109062401
H            5.09730034696566        0.21746936922592        0.29155392951554
C           -2.67770303308842        2.12739048294264       -0.27902316948248
C           -3.87986754214633        1.38296397839268       -0.13165500017592
H           -4.86846923756263        1.80518064684017       -0.18109474188835
H           -2.61912475097596        3.18351337505985       -0.45588181770082
