25
 energy: -49.085049985036 gnorm: 0.000716975237 xtb: 6.6.1 (8d0f1dd)
N           -4.24552575373599       -2.44548199234112       -0.41450374641195
C           -3.69467827442560       -1.44956752367379       -0.25836650450014
C           -3.00299239824315       -0.25065783131604       -0.07301766837621
C           -3.51818385605633        0.99560963896408        0.18662968714347
C           -2.45673923176887        1.94656108557869        0.30772440406232
C           -1.26410794591647        1.29206037114781        0.12705226747829
C           -1.55564303059106       -0.11902216762510       -0.11918374313522
C           -0.57396673957618       -1.02897561650869       -0.31588087265580
C            0.79600452760337       -0.61670441247432       -0.20203177400039
C            1.75636038835730       -1.58179148729874        0.04500928279928
C            1.40268656943478       -2.95120651590059        0.05675091093819
N            1.18397791276807       -4.07707663063856        0.05316237058487
C            3.09370402420276       -1.30285084890745        0.54178316120311
N            3.83260624285537       -0.29812223806152        0.29006079493188
C            3.46357420847988        0.76645620950760       -0.46483188112149
N            2.31572292282428        1.31758333497299       -0.52499410119699
C            1.10390360083697        0.82410179668437       -0.17502520432786
C            0.07941729077857        1.73339486692221        0.03648904069420
C            0.36505676113270        3.11310235100096        0.12647960396586
N            0.56241049635814        4.23829112213028        0.21844793590634
H            4.28527304382806        1.28095725290467       -0.94888778336997
H            3.51605115184568       -2.05563592156686        1.20216548863931
H           -0.79520791541128       -2.07395959651620       -0.48499761896515
H           -2.58781207413949        2.99502191107422        0.49867295307514
H           -4.56246712944260        1.23097297844086        0.28501864273955
