25
 energy: -49.086297073691 gnorm: 0.000946018279 xtb: 6.6.1 (8d0f1dd)
N            5.63964357110179        0.50232930340800        0.48859458260340
C            4.50655426600025        0.53568915389747        0.32836185559839
C            3.09988381217847        0.58638910431534        0.13453587614330
C            2.51546990857956        1.84767810756813        0.15820723216918
C            1.18624636118927        2.17060515901625       -0.06444560844940
C            0.03138557173696        1.39015791421412       -0.15217706047820
C           -1.16819261319870        2.11449287376816       -0.30560878583176
C           -2.37901826976012        1.48233578220413       -0.20610135821849
C           -2.44203964685883        0.04169484224177        0.11352497845818
N           -3.71380319843801       -0.29031814813886        0.26359045414138
C           -4.37506432235213        0.86374428407978        0.02344756677508
N           -3.64426609558696        1.93696107521575       -0.24651747513425
H           -5.44821364536511        0.90185651551194        0.05705214492491
C           -1.26037109985888       -0.70535939868770        0.18372467715235
C           -1.38185083792113       -2.05990198746526        0.57456106196673
N           -1.54646881152504       -3.11223823586728        0.99827876022572
C           -0.02337585227107       -0.07939292003970       -0.02981719302022
C            1.11655596747887       -0.91075069448902       -0.21271387296254
C            0.88792609803698       -2.25927961941828       -0.61876807034065
N            0.84428658200049       -3.30943203892942       -1.07428531371262
C            2.47263300436532       -0.63579117192934       -0.13258262500609
H            3.13246548072812       -1.48565383729835       -0.26788462497564
H           -1.13170897600497        3.18468213686985       -0.44359755461578
H            0.99656028016676        3.23620211196933       -0.12762550082206
H            3.19135759767960        2.67899331708380        0.31591738692027
