24
 energy: -48.575614402816 gnorm: 0.000878587438 xtb: 6.6.1 (8d0f1dd)
N            5.71284252520640        0.99882447059823        0.03137242471336
C            4.57682513444589        0.82164078542857        0.03459744767635
C            3.19308811083158        0.57524192250098        0.00715044815186
C            2.33671047429367        1.66041586713789        0.19619358792645
C            0.96239870052716        1.69719371644881        0.15834148286077
C            0.03604548796801        0.65622105894235       -0.05752022988966
N           -1.23252108890996        0.97469019885931       -0.16415626730473
C           -2.20146718578022        0.15793101053746        0.08576047486784
C           -3.59683029516968        0.14307266298797       -0.13508760950911
C           -4.40182828431993        1.23658828420636       -0.46609472902609
N           -5.06367890535101        2.13023566231877       -0.75070893229511
C           -3.99208069399783       -1.16755425637197        0.15343084415348
N           -2.95831173228826       -1.98741337519815        0.39076607385780
C           -1.85689630126158       -1.27051926554014        0.39051584850902
N           -0.60715525480717       -1.62783970006223        0.31667666465294
C            0.38333161777495       -0.78296571830116        0.10744071750864
N            1.59408033789336       -1.29120119916331        0.10772765401199
C            2.78715820059319       -0.79747145820319       -0.11779894757296
N            3.73089071089910       -1.71459983937701       -0.38415064232188
H            3.46236451547875       -2.68436450155490       -0.38693557385597
H            4.70068574221108       -1.45703592456116       -0.46056415294340
H           -4.99605913833567       -1.54977891493235        0.17037906524602
H            0.49652164484862        2.64839266810482        0.38102780654433
H            2.82952524284667        2.60741086889247        0.38154035723652
