25
 energy: -49.081201887222 gnorm: 0.000632955018 xtb: 6.6.1 (8d0f1dd)
N           -4.91074401048108       -1.03283831020963        0.06594263939810
C           -4.03887852783337       -0.28645184734809        0.03932582470523
C           -2.99512301109712        0.64323636159831        0.00887703596608
C           -1.63073595098378        0.36909797888837       -0.07204919130202
C           -0.92472507783449        1.68968083400238       -0.03097231326185
N            0.37461306921175        1.71311674552623        0.07865521403899
C            1.08360089495680        0.58846872522459        0.09324273062892
C            2.48308013358367        0.77098888145062       -0.02059058886196
C            2.87943903832709        2.11092842235286       -0.27852563536541
N            3.24609756070415        3.17750174412441       -0.48018060273766
C            3.52966218623670       -0.14216753336717        0.09612399857066
C            3.47033044945793       -1.51875864466286        0.21992561442666
C            2.35099795914838       -2.33706725666220        0.10925575073286
C            1.01747484895818       -1.97706980821692       -0.01448616995713
C            0.12527943656335       -3.05426072909364       -0.27151389082434
N           -0.54628094366374       -3.96033512488347       -0.47036887605758
C            0.38812464646041       -0.70490884555070        0.07946216414196
N           -0.93307821700446       -0.73478796104142        0.01905961065164
H            2.53983815861486       -3.40386338256956        0.08770900309957
H            4.41775052787527       -2.02748529697038        0.33759458347098
H            4.51977947936581        0.29729895912560        0.06955054099208
C           -1.90290836252526        2.68254410487514        0.06422928795044
C           -3.13868419913644        2.05752414472367        0.04900096072463
H           -4.09070395278981        2.55578681928004        0.09844414271903
H           -1.71823172161668        3.73784294850254        0.10936466334763
