29
 energy: -56.790080756450 gnorm: 0.000493417219 xtb: 6.6.1 (8d0f1dd)
N            6.22456898556684        0.59244622353396       -0.39627640307119
C            5.08403061354569        0.61173202458772       -0.26893762870196
C            3.68203218689868        0.60739158794146       -0.10047605695512
C            3.03280272774529        1.81002930450355       -0.14489067552863
C            1.65552629245987        2.07500755728569       -0.00737359858880
C            0.58344276615951        1.21187304761987        0.06732369175071
C           -0.71479974413339        1.80799240053334        0.11662047223376
C           -1.83269337413989        1.04287760513309        0.05284842761986
C           -1.75766818473203       -0.40741115787703       -0.04438660415233
C           -3.05885595320706       -0.89263501768401       -0.09512111305125
C           -3.47472979057729       -2.22378928477025       -0.18674643511514
N           -3.85340953596319       -3.30568426181733       -0.26246082075345
C           -3.95795078362889        0.22860041153030       -0.03471290056563
C           -3.23877274034507        1.39376811921228        0.05448215498315
C           -3.71991764166201        2.70294770763475        0.13061078439082
N           -4.08111457520648        3.79188465260850        0.19107783885334
H           -5.02942003302871        0.14326165436153       -0.05726716254162
C           -0.49082366902155       -1.02015736133245       -0.03664212023498
C           -0.36109956640272       -2.42689982163497       -0.07787592213167
N           -0.23687412068779       -3.56579979221745       -0.11144821763305
C            0.67610268756505       -0.25658520911387        0.03652784334784
N            1.79846835951781       -0.98565770572135        0.11793174681264
C            3.05839443563850       -0.69953765977687        0.12510402147597
N            3.88561657748701       -1.74069557146159        0.33570588621405
H            4.88558115229321       -1.64906577862290        0.28742499707780
H            3.46640296844354       -2.64984565429651        0.44005144559223
H           -0.78971801299779        2.88473118445724        0.18376455839417
H            1.40431254914538        3.12956392098021       -0.00712295521400
H            3.65800297676690        2.68298262160447       -0.29464003750725
