32
 energy: -59.952935773089 gnorm: 0.000604291484 xtb: 6.6.1 (8d0f1dd)
N            6.11014197402118        0.62556241651126       -0.77759826972216
C            4.98902257141542        0.66104043072688       -0.53150975522946
C            3.60762343520533        0.70648214415382       -0.23608339902823
C            3.03884663243469        1.97624168818081       -0.24702668956833
C            1.74074130321114        2.35765358581684        0.02454146404395
C            0.56846104444846        1.60532629819490        0.15938097273372
C           -0.61729680426800        2.32860385565608        0.33852659381562
C           -1.85760971829709        1.72629268741483        0.27918680184175
C           -1.93768528034018        0.29227302417450       -0.03204191000133
C           -3.27885278892066       -0.03797304834304       -0.14461244558654
C           -3.89251445166118       -1.25478092894378       -0.43229735512929
N           -4.50616517220267       -2.20151695771773       -0.65871765627740
C           -4.03846520222863        1.16680517058804        0.12156844010826
N           -5.37635804318657        1.20397095575934        0.11258665671904
H           -5.87021431403062        2.05538189645641        0.31396362919320
H           -5.89593745906134        0.36439341404133       -0.08355056015356
C           -3.15661328441357        2.22241868221831        0.37239646097070
H           -3.43726781623054        3.23442976288726        0.59138631903790
C           -0.75659169664380       -0.45839213938448       -0.12622538230058
C           -0.86757507470579       -1.80543587937981       -0.53755684010339
N           -1.00167560415719       -2.85017633064777       -0.99366806769824
C            0.49980236129439        0.14061247976287        0.06710030008131
C            1.60675359289402       -0.72255525927671        0.27921967401110
C            1.28579751084523       -2.00527772824762        0.79168037889256
N            1.14737548287745       -3.00022591008973        1.35000712560464
C            2.99669199671452       -0.52385835158302        0.12546858400310
N            3.81741189168971       -1.58404618553075        0.31007088679273
H            3.44088689091527       -2.49089889114506        0.52814009216692
H            4.81028505097569       -1.48191263234905        0.18826262990425
H           -0.55510653419032        3.39937726677890        0.47086796678236
H            1.58622487049788        3.42923739204873        0.06902159853288
H            3.73290497178823        2.78031378485875       -0.46189542964417
