29
 energy: -55.994632515391 gnorm: 0.000865042633 xtb: 6.6.1 (8d0f1dd)
N            6.14982773904926        0.45962511705595       -0.79402413031299
C            5.02498971686307        0.39597896838480       -0.56915931083780
C            3.65316795980786        0.28011083064729       -0.27188695418313
C            2.84049194275019        1.38307350437189       -0.45928329722535
C            1.48135327499787        1.51313892753295       -0.18328624432244
C            0.52650165089760        0.53286593722353        0.05635660991626
C            0.81366281343886       -0.92582462747172       -0.02651048174383
N            1.99931206474187       -1.45553975413177        0.20562385886776
C            3.21003081340099       -0.98229645936827        0.26853821154035
N            4.13245585188466       -1.79490964266360        0.82219784536126
H            3.83905078986667       -2.71628566703753        1.09923163131378
H            5.11272921980779       -1.57623443502724        0.77181443752261
N           -0.13426995937680       -1.81656340436670       -0.25780492865701
C           -1.40074494134379       -1.43463697697943       -0.23218482970464
C           -2.54230585218283       -2.18868400941967       -0.42439547430155
C           -3.65580751677479       -1.35828734722259       -0.18353008015275
N           -4.94203890339560       -1.70956460455134       -0.25336216922317
H           -5.65833489416658       -1.02995579070363       -0.05531640023448
H           -5.20573491012214       -2.64769512304605       -0.49949079055032
C           -3.20884805445749       -0.03407881017713        0.15770627442926
C           -4.07393097723580        1.01672787240236        0.45083705466457
N           -4.84932566410307        1.83478793642480        0.68358728817021
C           -1.81808948099871       -0.05031903266365        0.11850014653988
C           -0.82717732697958        0.91669629760485        0.23735539515544
C           -1.16055528004299        2.26922041731829        0.46437508467379
N           -1.41149774363525        3.37250171238535        0.65698516278479
H           -2.58031254632046       -3.22565998846558       -0.69137559675405
H            1.09686384846140        2.52611756078535       -0.24018494054717
H            3.33799728037016        2.27861822406690       -0.81230311519301
