28
 energy: -52.273970593756 gnorm: 0.000605825059 xtb: 6.6.1 (8d0f1dd)
N           -6.18912786745130       -0.44394522359781        0.19503155270550
C           -5.04147955237179       -0.43055426833074        0.14170448024764
C           -3.63460150497870       -0.39109797320155        0.06907001080276
C           -2.96281898895043       -1.62550487808561        0.15000056071550
C           -1.61804281487819       -1.87311337932530        0.07349821542036
C           -0.51702508774996       -0.98504321967673       -0.01369547128085
C            0.75249760794168       -1.53833511322320       -0.06623295300944
C            1.89008310052905       -0.73814356947322       -0.04559150900997
C            1.75073548889331        0.70881068819889        0.05742768874848
C            3.08540298336853        1.26086568021618        0.07844956208276
C            3.38046637096752        2.62294281188925        0.16482399271719
N            3.60150813706088        3.74853609951023        0.23433382840203
C            3.97415615144131        0.21169481381627       -0.00324333014933
C            3.25729651809966       -1.02373133602977       -0.07998152088162
C            3.83121777224424       -2.29177223953195       -0.16962873493194
N            4.28988409510166       -3.34367715037804       -0.24305217677460
H            5.04660472289733        0.29180764023769       -0.00935094657810
C            0.52250327427778        1.28500485653848        0.10499466041034
C           -0.65941019057618        0.48471891464024        0.02775265889561
N           -1.74868707094133        1.19888038297768       -0.02995115245722
C           -3.04124664727976        0.88268491592634       -0.09685562047315
N           -3.83293890083684        1.95610141048158       -0.29802645469487
H           -4.83482944151701        1.87596735474085       -0.31759886948302
H           -3.39677129391688        2.85953839753292       -0.36084518560843
H            0.39373679705513        2.35509857700030        0.16438894019491
H            0.86495598949244       -2.61255651289539       -0.11178820227370
H           -1.33626356748476       -2.91874465089777        0.11675691515829
H           -3.61053430183749       -2.48633559735991        0.26125234600483
