27
 energy: -42.951474459740 gnorm: 0.000356977313 xtb: 6.6.1 (8d0f1dd)
N            6.00207194635052       -0.00195233658089        0.00892145991244
C            4.85429472965888        0.00018963765616        0.00557897008569
C            3.43971941920985       -0.00028077586654        0.00118927011825
C            2.82432129628736        1.25494104677088       -0.00053761083565
C            1.47664459166157        1.54808187812652       -0.00265106309535
C            0.32964787418473        0.74073342738615       -0.00240037428468
C           -0.89307751116614        1.40998647786447       -0.00216672892430
C           -2.10407088542865        0.73797358566213       -0.00064478437191
C           -2.10416295420554       -0.73808599994125       -0.00075467597840
C           -3.42362035584703       -1.15517818986956        0.00486801083898
C           -4.23704468477009        0.00009780642983        0.00982257292915
N           -5.58942302961294        0.00020301152965       -0.01776522645725
H           -6.08682081119555       -0.86130874842737        0.12240785300340
H           -6.08669013503771        0.86177112839617        0.12253871210198
C           -3.42346018551176        1.15525918835310        0.00504205822843
H           -3.78072091955274        2.16783088447452        0.00649449942033
H           -3.78103029041297       -2.16769606620024        0.00616634453561
C           -0.89324741607542       -1.41026416428361       -0.00236790127107
C            0.32958248735417       -0.74117388264510       -0.00249950061364
C            1.47653679262871       -1.54861271881305       -0.00284286010400
C            2.82426877173417       -1.25552911044253       -0.00068498676415
H            3.49888426945480       -2.10358433889194       -0.00000567072700
H            1.25665595376345       -2.61126677026373       -0.00414052578978
H           -0.89447439389813       -2.49222681301996       -0.00294210054971
H           -0.89415380344737        2.49195037135695       -0.00258762535593
H            1.25686307836807        2.61075021380429       -0.00381445356221
H            3.49901262990577        2.10292750223489        0.00023790981077
