28
 energy: -51.451214511740 gnorm: 0.000557543251 xtb: 6.6.1 (8d0f1dd)
N           -0.96039418470745       -3.44571969541288       -0.77833723713217
C           -1.05490983807133       -2.34617060553040       -0.45391853825924
C           -1.28063950261653       -0.98474793289523       -0.15784611025070
C           -2.63563076195379       -0.58785867689316       -0.22371690435451
C           -3.12682800202101        0.68202541480537        0.11921647559197
C           -2.38945695117824        1.83648202501179        0.34828146575417
N           -1.13329367289465        2.06354995801938       -0.04295520300732
C           -0.13825040732694        1.26116994351667       -0.22493588296096
N            0.98394694919211        1.89813944739231       -0.66243676966290
C            2.12355435940538        1.32520632916404       -0.46209611431575
C            2.28576178658866       -0.00020316908650        0.19505517653680
C            3.62032756689714       -0.21552246987662        0.35448956786640
C            4.31900794958736        0.91820828988637       -0.20353996493235
C            3.44118365543596        1.83037284976275       -0.70453636807208
H            3.65876080455352        2.77044850983892       -1.17021523496022
H            5.39143491509823        1.00440820968454       -0.21450072920249
H            4.09017069756726       -1.07243141528126        0.79908496926365
C            1.10878019396631       -0.76360251925613        0.38382958374849
C            1.22990944527528       -2.06652183346371        0.90612775759469
N            1.38747678819048       -3.07939106363487        1.42414252505070
C           -0.12086354477654       -0.18851596915339        0.06798982654183
N           -2.98291689750387        2.91959987822653        0.90737420180226
H           -2.47019400252985        3.78426548123337        0.89075990540908
H           -3.97591022824773        2.94452764928420        1.05095540516177
H           -4.20327827793836        0.76849853547300        0.20075478994166
N           -3.55509324811314       -1.52401321139517       -0.57281567102757
H           -4.53402925390903       -1.31253898414621       -0.51146595902444
H           -3.27645700606932       -2.48096498917352       -0.70694738460057
