30
 energy: -50.917590888605 gnorm: 0.000854909904 xtb: 6.6.1 (8d0f1dd)
N            5.88417613598259        0.65900999442818       -0.03738816243500
C            4.73637314987637        0.59971510183347       -0.01475149506047
C            3.32800549656902        0.53068420153086        0.00460938057671
C            2.66556076279113        1.76805136232111        0.00139111681657
C            1.32325463522247        2.04385710159658        0.00794149730099
C            0.18192606010056        1.21484616991037        0.00695300415692
C           -1.04875264151898        1.86086149792006        0.00407880564429
C           -2.25331702380467        1.17035182813978       -0.00612770837033
C           -2.23370688250146       -0.30619969260703       -0.01258134756878
C           -3.54408427786262       -0.75000453474028       -0.02689768706319
C           -4.37321274957057        0.38834792459280       -0.03047546518127
N           -5.72012881762426        0.37437836377737       -0.02714910853124
H           -6.23688529849505        1.23233807930148       -0.09927676662300
H           -6.21513592778157       -0.49628020323301       -0.10119304376545
C           -3.57373352570298        1.56447852324132       -0.01672221491006
H           -3.94990368744952        2.56986146351493       -0.01575743929379
H           -3.87632873686991       -1.77043248217957       -0.03466115435885
C           -1.00545645866598       -0.96617836595050       -0.00599191581285
C           -1.02671563050273       -2.37280093813817       -0.01372816259925
N           -1.07736161433346       -3.52207779322564       -0.02316359899829
C            0.22732456169268       -0.25725844374931        0.00567741826639
C            1.37376440174332       -1.03646496644802        0.01801965380001
C            2.74896866201614       -0.75255966142860        0.02262828175538
N            3.58404244365835       -1.82664255545026        0.06623433457437
H            3.21254825245441       -2.75669975445898       -0.00622826223742
H            4.57835655654528       -1.69749593670809       -0.00584988155018
H            1.17377448866947       -2.10458252221346        0.02430950164981
H           -1.06806713692794        2.94220585219146        0.00717869664016
H            1.08537230929770        3.10180855886878        0.00856155619519
H            3.32700260779183        2.62663874266269       -0.00716684211683
