28
 energy: -52.268423551973 gnorm: 0.000436748784 xtb: 6.6.1 (8d0f1dd)
N           -4.89257389444676       -1.75981121378064       -0.00587151688841
C           -4.14324981440330       -0.88760686767881       -0.00436419547482
C           -3.23968606492466        0.17362397372654       -0.00180377315312
C           -3.59920147174910        1.57453490383398        0.00014309525690
C           -2.47503903350335        2.34280490872778        0.00230052485378
C           -1.34883538290477        1.46404346647100        0.00181178606019
C           -1.85493594567323        0.09187251227515       -0.00077816479077
C           -0.95737758031047       -0.97593873125478       -0.00113194331189
C            0.40935689603968       -0.77290254583870        0.00018615951491
C            1.26065572025017       -1.93423225902087        0.00194081056914
C            0.61800591445601       -3.19827772898613        0.00445176706842
N            0.16038630470393       -4.25028940068240        0.00739615127091
C            2.63899986339737       -2.04958090825728        0.00198953796005
N            3.61064724697661       -1.14552362446262       -0.00201482290976
C            3.46769032297407        0.15820760579404       -0.00418933564817
N            4.62574514098619        0.84734903881314       -0.00982147911215
H            4.65167587840843        1.85094591122341       -0.01142428158564
H            5.48422193632419        0.32385834053014       -0.01226571830391
C            2.26824266107907        0.94858748228921       -0.00042065571389
C            0.94683781577407        0.59032322708430        0.00119032093001
C            0.00195138130560        1.68962689474115        0.00304781034638
C            0.46836972938379        3.02227089842927        0.00509372874113
N            0.82758263928279        4.11251827871041        0.00761128674667
H            2.46439627930223        2.01583968858993        0.00040399370910
H            3.03079943991193       -3.06295343108500        0.00476771678389
H           -1.34866783427791       -1.98306725144794       -0.00217214276003
H           -2.41945182824442        3.41457374605904        0.00407536735615
H           -4.61566430271810        1.92462155129610       -0.00016534061495
