27
 energy: -52.533520892307 gnorm: 0.000603349532 xtb: 6.6.1 (8d0f1dd)
N           -5.28612839952641       -1.44411870012373       -0.00443879895102
C           -4.17253387885858       -1.16701081238220        0.00031191803908
C           -2.80007560331952       -0.81903726177827       -0.00086010403076
C           -1.91884430115080       -1.91115809494373       -0.00180526782143
C           -0.54779563095236       -1.94379129832301       -0.00155412918938
C            0.40438618857494       -0.90604888830741       -0.00024799603680
C            0.07973223861622        0.52295680961166        0.00103598211515
N            1.02741261809318        1.48326027210276        0.00216719110863
C            2.28227292179320        1.14758380926137        0.00219899384803
C            2.74752923855322       -0.27200578955000        0.00106034829639
C            4.11887996974868       -0.19206016751829        0.00146688457723
C            4.40561443643606        1.19936777017786        0.00275510063107
N            3.33695606748771        1.98096739158354        0.00317691769614
H            5.38732294046785        1.64062975376956        0.00336603598007
H            4.83387604601757       -0.99070507791206        0.00095142585959
C            1.76362081229895       -1.26714779691664       -0.00020645420850
C            2.17219304331886       -2.61908788037069       -0.00172661209239
N            2.54737257585469       -3.70383445750249       -0.00213818195441
C           -1.19117081698870        1.10211132518876        0.00133773628552
C           -1.13316114534847        2.52661249501542        0.00319981344958
N           -1.21538295848933        3.67073791983332        0.00368540662969
C           -2.50859753618386        0.55941448365922        0.00059229046313
N           -3.53847346661632        1.43057813731813        0.00151357520941
H           -4.48748313659227        1.09572484371552        0.00100337827744
H           -3.36631101091464        2.42236914123172        0.00256226843293
H           -0.11363855535881       -2.93779407777677       -0.00235204940951
H           -2.41169659336105       -2.87615624906355       -0.00273119120490
