24
 energy: -49.362158766754 gnorm: 0.000349447981 xtb: 6.6.1 (8d0f1dd)
N            5.57622214282194        0.91763920455749       -0.00174478355251
C            4.44550381461397        0.73878136932575       -0.00131004020967
C            3.04047583275562        0.52225956191080       -0.00090884220612
C            2.24454996839748        1.67075740983079       -0.00133747960338
C            0.86736051460405        1.76752649017785       -0.00107574070951
C           -0.13957074666203        0.79254296607359       -0.00068104495636
C            0.07019181701812       -0.66083738010723       -0.00009321659385
N           -0.92242575063743       -1.54185994884088        0.00021909283295
C           -2.16187187641149       -1.10988541421730        0.00036621027576
N           -3.29805520787224       -1.79394591448725        0.00021820919024
C           -4.24290122999936       -0.84455228032728        0.00028908036921
N           -3.83875477751667        0.43139972179894        0.00005863525734
C           -2.51037498969463        0.34092116503446        0.00019523928065
C           -1.48037767456756        1.26508023978509       -0.00056170920437
C           -1.78105006044051        2.64806172832928       -0.00143824002276
N           -2.03448762643281        3.76583507876179       -0.00150806506384
H           -5.28726736156779       -1.09729959935624        0.00040396007550
C            1.33588745783546       -1.30674606205829        0.00034827871582
C            1.24821374141384       -2.73094571777236        0.00121832050091
N            1.27242885834713       -3.87521612513356        0.00211314648384
C            2.62968308505762       -0.81178797907296       -0.00000012708674
H            3.41951930930399       -1.55513328500110        0.00041463596637
H            0.48960412247946        2.78528841186860       -0.00115571371778
H            2.78474066195386        2.60980827542005       -0.00184699722170
