27
 energy: -52.538006579691 gnorm: 0.000758197566 xtb: 6.6.1 (8d0f1dd)
N           -5.39506679558569       -1.94988432501570       -0.00087998693804
C           -4.31345254261689       -1.56554971168743        0.00070648895640
C           -2.98114652739065       -1.08747166464942       -0.00008321729556
C           -2.00076608637764       -2.09552831108960       -0.00000855063067
C           -0.64177116409992       -1.98163030841695       -0.00006743339590
C            0.20752459129486       -0.84617744901696       -0.00015864844221
N            1.48178721219832       -1.18550273906556       -0.00008803417545
C            2.41196946988155       -0.24094052936774       -0.00024009845245
C            2.07717209345174        1.18973097691509       -0.00036510239982
N            3.21514117415648        1.94747292395705       -0.00045693647092
C            4.20806713464527        1.09814463514201       -0.00024174649069
C            3.80111555286787       -0.28589225022904        0.00011948752122
C            4.64917713931838       -1.39044579576420        0.00131241561167
N            5.36599839948485       -2.28892702310796       -0.00169060684275
H            5.22785384793686        1.44163480477349       -0.00010242069499
C            0.76920232545960        1.56079665415065       -0.00030596629581
C           -0.24373860327797        0.55502103012302       -0.00024910568373
C           -1.56774360710328        1.00416313106307       -0.00035489265326
C           -1.74014904961427        2.41640349417350       -0.00097577197562
N           -1.96235965799619        3.54247087872679       -0.00018706754497
C           -2.82218201776087        0.30997502198674       -0.00026645026377
N           -3.94603305160813        1.06062348955070       -0.00029659894572
H           -3.90365511360285        2.06554113990917       -0.00043148771009
H           -4.84727845795304        0.61258949155106       -0.00023813483597
H            0.50060491192349        2.60665854665907       -0.00024513966196
H           -0.07339942716532       -2.90280080689438        0.00001146146877
H           -2.40003513926656       -3.10257739177646        0.00014563174225
