22
 energy: -45.113299921368 gnorm: 0.000873825387 xtb: 6.6.1 (8d0f1dd)
N            4.73761499021974        1.43178648966916        0.97070481950825
C            3.92141565846075        0.68662509231724        0.66097995469501
C            2.94887869208400       -0.24298797220315        0.27868221255809
C            1.57629664643109       -0.03414123078029        0.25226720103648
C            0.97241816421207       -1.30570910598474       -0.27744144980082
C            2.02449053047064       -2.18966525275686       -0.54805403263107
C            3.19752070881212       -1.58091785579746       -0.15480290013582
H            4.17932181237786       -2.01587963500924       -0.20247424965361
H            1.91082640941944       -3.18399279176684       -0.93324968190534
N           -0.29638610706514       -1.28740968002154       -0.53157807023608
C           -1.06879835912080       -0.25930957917808       -0.35721967734768
C           -2.41837033840448       -0.43409834365782        0.06238682221114
C           -2.76035541594985       -1.73761779971484        0.49394789683641
N           -3.05717642820501       -2.79657360105453        0.81821487138585
C           -3.35881413698222        0.57552670682892        0.29030545798517
N           -3.33304226655878        1.82482173482210       -0.10190685033159
C           -2.27838716888017        2.50366214680059       -0.50066781168057
N           -1.03245268167215        2.23639183338309       -0.24426767302220
C           -0.41396558227297        1.09044591124484       -0.10814602717499
N            0.84324888078426        1.05276038266253        0.23538436452134
H           -2.47542704678912        3.47808371073607       -0.93223757603482
H           -4.26182435697035        0.29233923076274        0.82210810131597
