26
 energy: -48.019841959580 gnorm: 0.000878919640 xtb: 6.6.1 (8d0f1dd)
N            4.60862668792264        1.73487478963422        0.02438334704957
C            3.90103136443486        0.82904125427491        0.01486344940704
C            3.08807860006496       -0.30409749001230        0.00641996749933
C            1.70688675776012       -0.36741207501550        0.00142627265646
C            1.33481489416485       -1.79138255621387       -0.00653599035519
C            2.55565865048460       -2.54714639028688       -0.00664738280795
C            3.58804064139941       -1.66764164799832        0.00121784261672
H            4.63678966894060       -1.90567807250768        0.00344893912106
H            2.61553633042076       -3.61911919537994       -0.01215587042814
C            0.02198048414159       -2.11851745120210       -0.01006822245009
C           -0.97023065948088       -1.07975309103783       -0.00583143803377
C           -2.28086781053964       -1.47707427067874       -0.00443783571227
C           -3.49094494943782       -0.71090540952875        0.00329447195418
N           -3.66514590525354        0.59127781806470        0.00106639693924
C           -2.72527500318517        1.52679722144568       -0.00629159997436
C           -1.34605193764511        1.44930208536447       -0.00532673055816
C           -0.68077170895571        2.70254703998118       -0.00846480501430
N           -0.21949889360056        3.75165913145137       -0.01244232656870
C           -0.47471184357693        0.30737934402735       -0.00188095035305
N            0.79870084658431        0.60862075056422        0.00211410640260
H           -3.14702016554076        2.52797772081696       -0.01076962197322
N           -4.64264140052693       -1.41657364018058        0.00585949942627
H           -4.65880289762304       -2.41934413443938        0.03641267832554
H           -5.50552403434379       -0.90120701823501        0.02420696004023
H           -2.44523887667190       -2.55052529600101       -0.00837011736130
H           -0.30908369163694       -3.14956895150711       -0.01453759544776
