25
 energy: -49.087578003771 gnorm: 0.000275179213 xtb: 6.6.1 (8d0f1dd)
N            6.10193841978996        0.73243444435094        0.00015285907712
C            4.99396734586207        0.43972259209477       -0.00021815430291
C            3.62297785465887        0.08464367675371       -0.00023095954665
C            2.69697189281387        1.18158482804090       -0.00057115163223
N            1.41441587414231        1.18432939969285       -0.00054958029533
C            0.51025758322751        0.19253308509864       -0.00038486142821
C            0.77875457700620       -1.26643427901532       -0.00036647435467
C            2.03820030287683       -1.84213326162083       -0.00018645165691
C            3.31275482417636       -1.25729471098726       -0.00005171747935
H            4.14863460336791       -1.94695547237572        0.00018077409301
H            2.04447079843836       -2.92637037761398       -0.00009129164855
C           -0.32195767464363       -2.15962872607961       -0.00045859955132
C           -1.60338995712435       -1.69170744555775       -0.00043140633950
N           -2.76508112764904       -2.40222145103401       -0.00041343215775
C           -3.73147358108883       -1.51954250347233       -0.00037832132725
C           -3.26797486237470       -0.15570520043608       -0.00028896205039
C           -4.08561609440818        0.97605987672020       -0.00002064324074
N           -4.79265069904367        1.88071714813513        0.00015199150925
C           -1.88389359223792       -0.25093907613756       -0.00031559461575
C           -0.80888746699994        0.65156018922173       -0.00034709160712
C           -1.05416018816366        2.04604956212574       -0.00048127388657
N           -1.28143953223063        3.16852454883811       -0.00008644579443
H           -4.76267100878957       -1.82534069352191       -0.00040544278296
H           -0.14268599186701       -3.22453390020664       -0.00048081484617
H            3.14042097416087        2.17358249618624       -0.00080471693450
