27
 energy: -52.533198283004 gnorm: 0.000741196747 xtb: 6.6.1 (8d0f1dd)
N            5.15681532953273        1.75180971738793        0.79471446884065
C            4.33933054953276        0.97338246669088        0.57656487050060
C            3.36419864377032        0.01237903073164        0.31511411388362
C            3.60974070626107       -1.40947734993380        0.17969511241361
C            2.45094477840073       -2.06648072173910       -0.10181749315301
C            1.40215356548614       -1.09942771746246       -0.12953855717561
C            2.00725163624235        0.21967486762544        0.12846271629144
N            1.31316022469212        1.34702320662920        0.03028277535892
C            0.01311578316617        1.30332468505426       -0.16081385289090
C           -0.57131585493507        2.55864130660495       -0.47078453525058
C           -1.89231838122693        2.87699309868085       -0.65121861294213
N           -2.97377441812284        2.20955181072530       -0.27015522014881
C           -3.06940851371439        0.99118210725231        0.18355431641806
N           -4.23343176059283        0.69119986937251        0.78764316924845
H           -4.46791113705170       -0.24803412452491        1.06035590113231
H           -4.93221849643912        1.41346430156345        0.83099549812291
C           -2.09838969604772       -0.08686774008586        0.01029038588179
C           -2.67887695894010       -1.36508234926538        0.19133940127338
N           -3.26810448624629       -2.31913918893090        0.44173758011281
C           -0.73944684421973        0.03405318234150       -0.20368297998194
C            0.05231351947257       -1.16758685455416       -0.35479351024216
C           -0.49579420807652       -2.40138331628024       -0.77535961064552
N           -0.81277607189272       -3.41619712017713       -1.20624326842315
H           -2.13170055964293        3.85201409709182       -1.06050101441554
H            0.16139535082569        3.33973747368988       -0.62054767673234
H            2.32021907100081       -3.12034442413291       -0.25717235370061
H            4.58513395966810       -1.84989358975483        0.28295408292391
