29
 energy: -56.783937421485 gnorm: 0.000778391325 xtb: 6.6.1 (8d0f1dd)
N           -5.95467001228710       -1.37237177503215        0.00050900207890
C           -4.82790378151531       -1.15347015112411       -0.00130740793049
C           -3.43890298477794       -0.88237919717273       -0.00046693716984
C           -2.62148167847956       -2.03109650882862       -0.00206210276848
C           -1.26327664711576       -2.12502180055954       -0.00244745853339
C           -0.25081999193302       -1.12770632947224       -0.00140027405281
N            0.95905137054790       -1.65095799184249       -0.00242396448131
C            2.02329485827938       -0.86134245080864       -0.00158887203198
C            1.90832268378670        0.59549686300950        0.00037551732714
C            3.25238715901472        1.12401121893459        0.00090298062190
C            3.56957609275961        2.48485774721449        0.00309721588084
N            3.80143809053157        3.60981841096623        0.00302265020635
C            4.11749224864026        0.05438289734517       -0.00089084376177
C            3.38139440644277       -1.17666716625773       -0.00255052203215
C            3.95015098484805       -2.45145758028713       -0.00535123808930
N            4.43261154831860       -3.49426170729554       -0.00411249637617
H            5.19132318341589        0.11314132402794       -0.00114364923547
C            0.67517954608533        1.16005079043113        0.00141912463216
C           -0.48739482587730        0.32103232688003        0.00052493646648
C           -1.72233389247960        0.96939857885061        0.00159060111635
C           -1.67817653835390        2.39143011399922        0.00458587674645
N           -1.72020411058277        3.53841199291066        0.00350427068346
C           -3.07108653199628        0.47249228904819        0.00121235026049
N           -4.06478972682175        1.38773000920114        0.00253572040503
H           -3.86924127378596        2.37445981268481        0.00376629758291
H           -5.02458581625102        1.08431412285147        0.00230437916583
H            0.56134622806906        2.23528241532444        0.00286196083130
H           -0.83948254763678       -3.12087295830736       -0.00382946625678
H           -3.17085235064580       -2.96463081469138       -0.00317721348563
