26
 energy: -48.018061050973 gnorm: 0.000361896937 xtb: 6.6.1 (8d0f1dd)
N           -3.93953921674618       -2.66176950169726       -0.00205064745450
C           -3.51437267318255       -1.59363215216051       -0.00140059421892
C           -3.04468636408214       -0.28047893469469       -0.00041285194063
C           -1.73203748083973        0.15633048631485       -0.00010019277994
C           -1.76335115301743        1.63494689297964        0.00084696995652
C           -3.13352304357296        2.02652238212739        0.00116565545133
C           -3.89052512834575        0.89326538088715        0.00040399250463
H           -4.96503140173674        0.84200286053380        0.00035934728524
H           -3.48783083550774        3.03997479718585        0.00186463156203
C           -0.58176268264230        2.30688102437379        0.00102823857961
C            0.64527368319665        1.58198827736266        0.00031551124446
C            1.81445224238505        2.31315727657653       -0.00023675037410
C            3.15635002433745        1.88074165659588       -0.00153372216767
N            3.68603447664641        0.70017159922891       -0.00110820458392
C            3.06137362077198       -0.49141463911304        0.00039745001262
N            3.93308863172429       -1.52189638389107        0.00189709039571
H            4.91425922985894       -1.30594875056662        0.00128154373853
H            3.61668788932010       -2.47602221769629        0.00235561355894
C            1.67956554494074       -0.76452678915589        0.00018247229778
C            1.33697775672015       -2.13859303719317        0.00067034145360
N            1.16688075683004       -3.27407543271449        0.00051195025704
C            0.55281477174214        0.10793198068798       -0.00013422877310
N           -0.59465278704633       -0.53254775242493       -0.00043728737623
H            3.90128603579304        2.67238514856575       -0.00296908939724
H            1.69290075238733        3.39085205489289       -0.00001131345747
H           -0.54420913663441        3.38903158289496        0.00152758292570
