29
 energy: -56.776383144427 gnorm: 0.000499820554 xtb: 6.6.1 (8d0f1dd)
N            5.26953076203649        0.70140641970683        0.72983279489079
C            4.34585298474214        0.06692199985004        0.47823820393540
C            3.23706845038594       -0.72606083263568        0.16931510826183
C            3.24241916957342       -2.07918025346743       -0.12238851774192
C            1.92159890075742       -2.52997867257761       -0.38715399324791
C            1.06906807532784       -1.46082133729409       -0.25698157620260
C            1.87440748134422       -0.28195309272527        0.08529794182685
C            1.29090984403582        0.94986007084049        0.19320904783828
C            2.06458600760629        2.09989399801705        0.47350102565152
N            2.66413169321886        3.04520517320265        0.72100061042321
C           -0.12621447152044        1.10833373733057       -0.06504354950978
C           -0.56376602127199        2.37271259721587       -0.36542942388741
C           -1.85000739244156        2.74694657026536       -0.84015950097190
N           -2.98777052166972        2.19061667896603       -0.62798487735423
C           -3.23081720906345        1.04869259107643        0.04357821533546
N           -4.48243768630525        0.97250174109569        0.53553177644791
H           -4.83041301690624        0.12055024861578        0.94175407884388
H           -5.11460849076832        1.72870648831564        0.33826171840484
C           -2.35932350447864       -0.05223230534306        0.14029817880640
C           -2.95727644628670       -1.21803289761597        0.66733392969634
N           -3.51277124408847       -2.07348070628754        1.19713314011884
C           -0.95490139735329       -0.10087045346752       -0.13660946685359
C           -0.33712029027040       -1.33532348414269       -0.31915571891538
C           -1.07157694955123       -2.50067533930613       -0.62915639722898
N           -1.59269511076168       -3.46070701053482       -0.98044338173252
H           -1.90224619851234        3.66272798956450       -1.42101557490849
H            0.17228824330942        3.16737553858308       -0.34832468373471
H            1.64694921732513       -3.53694000705785       -0.63689859842234
H            4.11967872018620       -2.70030232089081       -0.14474290297381
