26
 energy: -48.022643388165 gnorm: 0.000838198173 xtb: 6.6.1 (8d0f1dd)
N           -5.68838153258037       -1.01291712505811        0.27075613787690
C           -4.55618486552504       -0.82595105871156        0.20499834692418
C           -3.17680140761227       -0.56051296263057        0.10717184866177
C           -2.29688859314551       -1.64229882196406        0.29502607640519
C           -0.93407668197989       -1.66428608703356        0.16988826175771
C           -0.01393437901679       -0.59890182391175       -0.00916560063178
N            1.24397676912686       -0.95948883489565       -0.11791559651813
C            2.19817233858056       -0.03658184391056       -0.04959703633110
C            1.91349199650006        1.37922775979600        0.25413958272636
C            3.17302894186336        2.05892647746218        0.31020788721617
C            4.14915922805991        1.15298982005843        0.04066574101724
C            3.57084525681948       -0.15442661805962       -0.19841502658563
C            4.29609411471341       -1.29842104802571       -0.52369695511860
N            4.91618371835233       -2.23004270120784       -0.78949837002588
H            5.20708466043978        1.34233211783114       -0.00117783046483
H            3.30054511449304        3.10077671321641        0.53469579720886
C            0.61872677829779        1.77994178095120        0.32472769330513
C           -0.41863578759016        0.81984680626814        0.10240130663666
N           -1.61405720757535        1.32639951794571       -0.00901598439320
C           -2.80824476961983        0.77525583701507       -0.19173564423269
N           -3.75493565420292        1.64514224219244       -0.60094828350671
H           -3.49958225939193        2.60970776123195       -0.71834867569593
H           -4.71852035077050        1.36830657773196       -0.67076521873436
H            0.32752723227543        2.81191460012853        0.45883501653819
H           -0.44370959693053       -2.62299808928997        0.28005040896654
H           -2.78073628588191       -2.58615779803113        0.51492526609876
