30
 energy: -55.716207008734 gnorm: 0.000782915034 xtb: 6.6.1 (8d0f1dd)
N            5.14340109146588        1.39161781833507        1.04103038927359
C            4.40977840089963        0.56956448330674        0.70719474389849
C            3.53033145441566       -0.43373979260093        0.31373116972187
C            3.91202044328624       -1.80702707966703        0.01719586972468
C            2.81702123935965       -2.52238260377944       -0.32357356966167
C            1.67267066136520       -1.64031919532184       -0.25934204492500
C            2.15759577114127       -0.32670672527057        0.13953579981759
C            1.26145022515211        0.74301674521118        0.21289350706096
C           -0.09002710427542        0.55883966735949       -0.00034220033636
C           -0.91824024624745        1.73200260113854       -0.14513038175963
C           -0.24637849316086        2.95455342351607       -0.33196601251675
N            0.23722613362557        3.98616923797698       -0.49495096128746
C           -2.31453657805070        1.82849639272403       -0.17448188678727
N           -3.20083887021853        0.90395473507527        0.22879032112943
C           -3.04663672908933       -0.37548314154706        0.34392434901713
N           -4.06094005383220       -1.04432197609616        0.92652741806334
H           -4.87255786141905       -0.52120027835873        1.20586040205755
H           -4.08289468693703       -2.04902055476383        0.95049119497807
C           -1.92171084247049       -1.18010166187901       -0.12827839462464
C           -2.27423976182303       -2.51921822123233       -0.39805945126901
N           -2.64953580168369       -3.58521529502832       -0.60909001059512
C           -0.59718531969976       -0.79048864155041       -0.22470486899874
C            0.35178892929011       -1.84510015445314       -0.46698542959912
H           -0.02518495413713       -2.82264325698264       -0.73237146410904
N           -2.90167701117405        2.98950526126976       -0.55052819695636
H           -3.89174388492810        3.08113741241563       -0.40720239218605
H           -2.34517919404725        3.81151224480755       -0.71095532832281
H            1.64152119117837        1.73487354511105        0.41011080121940
H            2.77284716834510       -3.55947488936221       -0.59542888291249
H            4.92596568216945       -2.15990331295395        0.07332580748550
