25
 energy: -49.083785820608 gnorm: 0.000709301605 xtb: 6.6.1 (8d0f1dd)
N            5.67670614919741        1.59360757511240       -0.32168280591217
C            4.57734715633448        1.28702381319670       -0.21663025743260
C            3.21425895766719        0.91465148126110       -0.09748824676847
C            2.29546438858628        1.97596772019824        0.02264508159793
C            0.93066474998514        1.91499372365215        0.10833392573880
C            0.04069429700472        0.82368486871321       -0.01605547223820
N           -1.23946710138857        1.15470404487608        0.05341869902551
C           -2.17268875894447        0.23771308645500        0.10364503453603
C           -1.79355144497230       -1.20808921170537        0.00617233872144
N           -0.53484077616809       -1.52809268667724       -0.10680192379427
C            0.41324555492129       -0.59591218557921       -0.07565819164258
C            1.73141983400208       -1.10124467232374        0.03871176455362
C            1.80582050782086       -2.50766770212233        0.23367694218112
N            1.91061904992187       -3.63842749322099        0.38295970498650
C            2.95939953617512       -0.45102936792982       -0.02314412938659
H            3.82944483299939       -1.09848325428612       -0.00112043582625
C           -2.97635425068229       -1.94271970708524       -0.11977760866124
C           -4.03227131521026       -1.04959207718029       -0.07437275286202
C           -3.56310700313657        0.29095131083758        0.02004684097689
C           -4.35372527135665        1.44308637815478        0.02795776050163
N           -5.00787937598026        2.38691819252958        0.03424872423536
H           -5.07403484335027       -1.30983451809620       -0.13786162794071
H           -3.04098617459734       -3.00993407700399       -0.20148166401322
H            0.41162135362085        2.84687028105327        0.29720744198698
H            2.73816547155043        2.96318566047245        0.07436943973487
