26
 energy: -48.820672751873 gnorm: 0.000378389710 xtb: 6.6.1 (8d0f1dd)
N            6.01581530704906        0.07405388959545       -0.00108771527722
C            4.87824126579198       -0.05958145530217       -0.00002634931677
C            3.46853770453773       -0.22981623246592       -0.00042054732687
C            3.00376871529257       -1.53199162437426       -0.00016931955991
C            1.68155789392757       -1.97441195102359        0.00005206998712
C            0.46627742435684       -1.30051741894527        0.00011564184100
C           -0.67637812531222       -2.13543413371904        0.00045952135584
C           -1.93730681161110       -1.60900810312092        0.00061346035245
C           -2.12654400293983       -0.15610072683962        0.00044149112289
C           -3.50925522102658        0.01978825438019        0.00069668588614
C           -4.23282064531637        1.21151451655440        0.00070757866731
N           -4.83023001716012        2.19300719177309        0.00142468689764
C           -4.04979424577791       -1.30670936861088        0.00098207817380
N           -3.13405339913502       -2.24966143471390        0.00096406261478
H           -5.09656915196937       -1.55488294768927        0.00121219399227
C           -1.01689694421629        0.68017343430393        0.00010647237796
C            0.27045631362608        0.16382246651343       -0.00011309460634
C            1.34199222641634        1.11020713407569       -0.00048210430217
C            0.97405063068664        2.48856108654614        0.00018588380441
N            0.76337718085969        3.61452441656445       -0.00172449682063
C            2.71261768584172        0.95887399688496       -0.00053986427877
H            3.29130612000396        1.87622252239220       -0.00067943406278
H           -1.16897456970522        1.75033090445654       -0.00000487331399
H           -0.55025967920408       -3.20756133387889        0.00064387960422
H            1.58556446910538       -3.05429365114367        0.00025963615315
H            3.76179233937858       -2.30561251251305       -0.00007033706552
