29
 energy: -51.199198209749 gnorm: 0.000464537309 xtb: 6.6.1 (8d0f1dd)
N           -6.16306117151166       -0.02428176929239        0.01504639362392
C           -5.01725532292474        0.06410526162456        0.00735822020183
C           -3.60938580165657        0.16369246319575        0.00088021777493
C           -3.10397885461008        1.47081738332181        0.00125980227922
C           -1.80573196307235        1.91584941027200       -0.00208944704665
C           -0.58078414133251        1.22375198807322       -0.00435342069617
C            0.58699824308671        1.98607073555010       -0.00706748060693
C            1.82568276844025        1.36594778001445       -0.00774384923005
C            1.83721149590012       -0.11611030147868       -0.00438824859758
N            0.74818678065154       -0.84600660413617       -0.00252538402744
C           -0.45044858344074       -0.24325289435293       -0.00343728704413
C           -1.49035270754857       -1.16438079670470       -0.00407897222942
C           -2.88590839150778       -1.04926652499101       -0.00386940088083
N           -3.59185057797081       -2.20911354807636       -0.01644402017430
H           -4.59642802130126       -2.19759480847684        0.01091851619594
H           -3.11213798292018       -3.09010319310328        0.01014527707710
H           -1.11967380319453       -2.18398837213092       -0.00533566765725
C            3.17830616547182       -0.52097610242700       -0.00427174311040
C            3.69935996648391       -1.81019158019940       -0.00118829510756
N            4.19596037420188       -2.84907819303002        0.00087930135742
C            3.97426731116613        0.66427347880787       -0.00810957308744
N            5.31594323690398        0.66758700810467       -0.00896223328855
H            5.81597182826152       -0.20498789588819       -0.00899571130200
H            5.82835692186982        1.53117187163930       -0.01387473070477
C            3.13774492801442        1.80195970861569       -0.01002843387656
H            3.47939035908498        2.82022393570250       -0.01273122677760
H            0.51669500899368        3.06623087129210       -0.00819830249932
H           -1.69674507834568        2.99523886982259       -0.00227722625984
H           -3.86698507469333        2.24097795515131        0.00459272389439
