29
 energy: -56.778556612817 gnorm: 0.000768695409 xtb: 6.6.1 (8d0f1dd)
N           -5.53659465121139       -1.98857078320154       -0.00143745798123
C           -4.46560619131416       -1.57565119790913        0.00136561429722
C           -3.14916472272589       -1.05704310317017        0.00037641753615
C           -2.13227095365344       -2.03331599265747       -0.00088884779567
C           -0.77255045101679       -1.89460504399117       -0.00116254975657
C            0.04457192629246       -0.73934322496405       -0.00024638886298
C           -0.46367510167773        0.62750947344464        0.00118552540595
N            0.36383442707716        1.70389889556077        0.00195645036889
C            1.64791495289344        1.52739830364975        0.00146785276428
C            2.28559068801242        0.19674934175504        0.00006249063433
C            3.65325202949033        0.40413398659081        0.00005076191624
C            4.66791649870782       -0.55324732301583       -0.00025666322178
N            5.52469034030674       -1.31959858268738       -0.00361700799744
C            3.87575265852762        1.83689701052522        0.00116840704433
C            2.68822091283033        2.50324093088820        0.00207481979571
H            2.53068281788055        3.56318274363881        0.00316497482237
H            4.85735079742965        2.27584723278505        0.00144259782937
C            1.43863815598545       -0.92057153767243       -0.00076140179593
C            2.00203999494135       -2.21757803347728       -0.00236727659820
N            2.46128297170083       -3.26845427962935       -0.00293082357808
C           -1.79231174723439        1.04870111374281        0.00194163831977
C           -1.90939260331027        2.46832838745465        0.00289072499968
N           -2.10978548503781        3.59812261870158        0.00492885834761
C           -3.03485828372780        0.34297158441268        0.00167169829047
N           -4.16298978116787        1.08260859813634        0.00282804673082
H           -4.11543591434612        2.08790117958982        0.00375343934033
H           -5.06342571502965        0.63307383812095        0.00264776459017
H           -0.21469838528565       -2.82408242403426       -0.00217117277671
H           -2.50274516603711       -3.05133216228701       -0.00169755546907
