28
 energy: -47.474337907266 gnorm: 0.000704613281 xtb: 6.6.1 (8d0f1dd)
N           -4.75747091525001       -1.20456862978286        0.07121758791091
C           -3.91113363133643       -0.42626323310099        0.04660483558804
C           -2.92908330682089        0.56375921713690        0.01796228329699
C           -3.20894255902209        1.97523862401193        0.00145770735043
C           -2.04276210065030        2.68385338256421       -0.02294354471502
C           -0.96474971379508        1.75400215085865       -0.02234192483434
C           -1.54871092552533        0.41159412683262        0.00215434757116
C           -0.69219323287297       -0.70080327276533        0.00166978766160
C           -1.27204236378835       -1.98820922339613        0.01976545387118
N           -1.74590006523386       -3.03368777948424        0.03591126947619
C            0.70563919218373       -0.55193074913857       -0.01563366299052
C            1.47179348793953       -1.73660576623802       -0.03012855505960
C            2.82914304315685       -1.95133827527651       -0.03622814723818
C            3.87666070848918       -1.03397259834662       -0.01850909329357
C            3.80274833634893        0.35187042616447       -0.00571439058685
N            4.97611833299300        1.05440173641082       -0.03534392344529
H            5.83947367144538        0.56702571142797        0.12676480236272
H            4.96888920522813        2.04068063884756        0.15435991139512
C            2.61833219971063        1.12241148671895       -0.01863107975571
C            1.27706872884525        0.79913156959026       -0.02453047704304
C            0.38678580476324        1.91168217344850       -0.03394149833708
H            0.81063526814017        2.90668899624597       -0.04791615532896
H            2.81407680596541        2.19096523619856       -0.02406409981600
H            4.87560107415610       -1.45300725510848       -0.01668943366335
H            3.13335319416825       -2.98994847470611       -0.04877863165633
H            0.87193911674283       -2.63959339930893       -0.03657988659552
H           -1.93819111822569        3.75209335393343       -0.03941651074968
H           -4.20542824725560        2.37996593936196        0.00825045202471
