30
 energy: -56.501720279311 gnorm: 0.000789999556 xtb: 6.6.1 (8d0f1dd)
N           -4.73376925280127       -2.27395512226626       -0.66224972638613
C           -4.13925942579162       -1.32240598172992       -0.41226013803026
C           -3.39724350420048       -0.18053333986870       -0.11010400479781
C           -3.85978250319909        1.06595882527732        0.24500983737645
C           -2.76241866626845        1.94735527344668        0.47023546159960
C           -1.59750866070088        1.25179493926225        0.24617024416353
C           -1.94736060855166       -0.11427608649766       -0.11346462740152
C           -0.99647997960331       -1.05414825919275       -0.31820904129457
C            0.39594465827878       -0.73367825342078       -0.15095650574629
C            1.25898922069888       -1.81781343306038       -0.04580751008695
C            0.70548731729795       -3.10891166057840       -0.24659148614512
N            0.34591720020118       -4.18611234639302       -0.41598141616379
C            2.65465329491908       -1.87233174808067        0.32737269969832
C            3.54684843795311       -0.82194494734842        0.21825382793078
C            3.29588500410920        0.48586560893275       -0.20086671203439
C            2.09248506399355        1.13841500300219       -0.32024515498964
C            2.19883895397689        2.44089840808200       -0.87055921002054
N            2.35937095888478        3.43470994509953       -1.42127876194784
C            0.75821819875430        0.67034363639043       -0.02700290492849
C           -0.22893937687789        1.61288756635643        0.23619903985494
C            0.08018631179224        2.94806983957223        0.57748615572481
N            0.24995100747685        4.01548961034683        0.96277931881265
H            4.17298033913456        1.07983833166055       -0.42777425618477
H            4.58286292576035       -1.06269398101135        0.41967939074745
N            3.12438800049814       -3.06769356247141        0.76019214721619
H            2.54469819725389       -3.88918864736949        0.75279890436052
H            4.10587024326541       -3.17866726954284        0.94247175044433
H           -1.27658494690295       -2.07649979371393       -0.52879516092784
H           -2.84563016369746        2.97851945001630        0.75760124541397
H           -4.89462302065602        1.34192249349827        0.33838433994000
