28
 energy: -51.481787479701 gnorm: 0.000850012445 xtb: 6.6.1 (8d0f1dd)
N            4.59873449869035        2.52300783892781       -0.87816325503952
C            4.00307617891043        1.57362762933305       -0.61524060636918
C            3.28153951665999        0.42646009200517       -0.29828588178755
C            3.84694710315988       -0.87906901446718       -0.05798760212301
C            2.85802245903502       -1.77221276202421        0.23473312842145
C            1.61662719075822       -1.07538231836353        0.19145855872587
C            1.90367384995285        0.32605096448713       -0.14998163495875
C            0.87305357198023        1.25979866769342       -0.18708597896108
C           -0.44021327506761        0.88379070404228        0.04123016208481
N           -1.32790328657361        1.87423595388776        0.19286901005883
C           -2.62709127350154        1.83953435176515        0.27913737806663
N           -3.49912505536310        0.90582830096701       -0.17046253970057
C           -3.22715712008825       -0.35503590816923       -0.33335848702197
N           -4.20461721939274       -1.11008977496011       -0.87178146251651
H           -5.06527422848348       -0.66310932125372       -1.13464720354320
H           -4.10120955096609       -2.10133135823956       -0.98790248234975
C           -2.02073529332749       -1.06208910110039        0.03682283174184
C           -0.76932907926800       -0.54983034718575        0.19962681005375
C            0.32266130085397       -1.48312282417135        0.38889152314739
C            0.03889069679554       -2.82553525743196        0.70408882897130
N           -0.20011990637101       -3.92057127060660        0.95609605887540
H           -2.12549449006507       -2.14102316447831        0.08638190385235
N           -3.22433049659132        2.94418827698699        0.77845097307289
H           -2.65197240291926        3.75232017589743        0.94901478867325
H           -4.21492480347409        3.05140845738877        0.65238498604740
H            1.08685111697512        2.30579931429740       -0.34207957479419
H            2.97095498748038       -2.81605982845181        0.45771637309001
H            4.90099437460068       -1.08716001887538       -0.10880576021786
