26
 energy: -48.021532547912 gnorm: 0.000404422066 xtb: 6.6.1 (8d0f1dd)
N            5.49727536124934        0.63825591101528       -0.00087273763255
C            4.36118335879027        0.47221781352179       -0.00083582679975
C            2.96453846542785        0.25045673623824       -0.00054689365860
C            2.17529264783743        1.41180069251739       -0.00090363286479
C            0.81181518536338        1.55310119335667       -0.00082609963644
C           -0.22503948997003        0.59833082274746       -0.00041561317177
C           -0.01721101950147       -0.85447650784786        0.00010889542432
N           -1.04867454095240       -1.73280559635911        0.00047369255245
C           -2.26571077660228       -1.28522245270482        0.00038010002915
N           -3.39102502008836       -2.02912115886246        0.00070021728766
C           -4.38792562939633       -1.15998035585316        0.00043926008709
C           -3.98509971715461        0.20176671094293       -0.00005963789526
C           -2.61222713997434        0.16626710928089       -0.00011206541658
C           -1.54725213853999        1.07539686232312       -0.00051033584400
C           -1.84162207730129        2.45591045938282       -0.00097270508345
N           -2.12844292139747        3.56763297402471       -0.00146659212487
H           -4.63055222208093        1.05784028791471       -0.00032812963863
H           -5.40423275895320       -1.51532892437159        0.00060240218391
C            1.19588791013868       -1.51680971630117        0.00028647384048
C            2.53876008318847       -1.09196463476010        0.00002145898813
N            3.47819350551489       -2.06565249313250        0.00037402391182
H            3.20584929206586       -3.03205393338109        0.00062852534140
H            4.45702022311410       -1.83450591822255        0.00007166844138
H            1.06206786383426       -2.59342075648357        0.00068569031925
H            0.46025937428750        2.57951950061753       -0.00119034781447
H            2.74381781550066        2.33432709689640       -0.00130897532589
