28
 energy: -47.478019115700 gnorm: 0.000807603105 xtb: 6.6.1 (8d0f1dd)
N           -4.84900611996333       -2.10511330378493       -0.02472454358629
C           -4.12277405444943       -1.21221211687323       -0.01675585403269
C           -3.22509324083146       -0.14711823213881       -0.00771468349918
C           -3.53562610378769        1.22532939904401       -0.00778499174101
C           -2.36665844007765        1.98517562500594        0.00049496141235
C           -1.28479054955099        1.10949970505495        0.00581005110586
C           -1.81664407125282       -0.25966183749268        0.00119404002016
C           -0.96391902558896       -1.33164269906684        0.00491414822762
C            0.43629235586414       -1.16769156614219        0.01037680121696
C            1.18775531392832       -2.33973899560401        0.01127558521125
C            2.55979275374203       -2.56576403196283        0.00776643438997
C            3.59421611327971       -1.65733239063518        0.00514405659771
C            3.52107432260756       -0.25646267880159        0.01217799479798
N            4.70121089621061        0.42903453421321        0.05707378033718
H            5.56616653491517       -0.05773599259085       -0.09526729421353
H            4.70158935053405        1.42544082420073       -0.07031512799702
C            2.35083772976156        0.51188284490176        0.01715510279408
C            0.99673724334254        0.19422268045156        0.01408262640739
C            0.09797205625975        1.29281571196369        0.01214468640796
C            0.58062824748589        2.61662961479032        0.01234526510647
N            0.94982524244983        3.70486843433565        0.00921979729211
H            2.54581995563182        1.58080664807685        0.02382625345383
H            4.59653904408441       -2.06895588582576        0.00085350423941
H            2.85409670524088       -3.60735932795800        0.00442900313572
H            0.58932179556983       -3.24395086984273        0.01201299434618
H           -1.37027035239091       -2.33378427106847        0.00188229089793
H           -2.31105736871393        3.05739700511748        0.00232891590508
H           -4.53617253100093        1.62102025953199       -0.01377449803354
