27
 energy: -47.749349912483 gnorm: 0.000417879554 xtb: 6.6.1 (8d0f1dd)
N           -5.20647039992490       -1.60815714782261        0.33218621952883
C           -4.39311193428432       -0.79898923238853        0.23751297339100
C           -3.40631132940526        0.17486084506434        0.12152516769204
C           -3.64077964931767        1.60477030874147        0.04816200331347
C           -2.45896762948274        2.25858643422633       -0.06542234160415
C           -1.40687334027540        1.27532674876764       -0.07155169001402
C           -2.03519081753248       -0.03407728351684        0.04966993126722
C           -1.23660881435890       -1.17752244151807        0.03708574022692
C            0.14043381400953       -1.09728260116299       -0.04664906430784
C            0.85300032939790       -2.32817159432921       -0.16743630919293
C            2.19192047365262       -2.58365801277676       -0.22172169768757
N            3.24578212598451       -1.78073029089420       -0.04003761027079
C            3.25248610121632       -0.48856581562859        0.09751220854257
N            4.45891790353749        0.03913829229688        0.40207953392997
H            5.23587542880562       -0.59622486736797        0.45952439214975
H            4.61878694366000        1.03003443436864        0.44344242546439
C            2.14746002948076        0.45564832007186       -0.06784432814492
C            2.59097705110389        1.79439927493058       -0.17067808397163
N            3.03510345294959        2.85155602620660       -0.25592700144349
C            0.78193772481206        0.21844182382805       -0.10342496923900
C           -0.05839394538571        1.37976150667967       -0.16519205169317
H            0.40863014039823        2.35068195325861       -0.24997938996411
H            2.49810854671182       -3.61205219441041       -0.38108758310825
H            0.21196979022792       -3.19727909064901       -0.24779667132543
H           -1.70914730522258       -2.14829903652182        0.08097168248964
H           -2.30677734478663        3.31815063895307       -0.14068033029412
H           -4.62187238477169        2.04345063609331        0.08135410996551
