26
 energy: -48.019650096188 gnorm: 0.000755555655 xtb: 6.6.1 (8d0f1dd)
N            6.27616214297065        0.67358338358139       -0.00257745182110
C            5.15167768001246        0.44697585663908       -0.00149200209477
C            3.76617535399871        0.16506220703857       -0.00052587489083
C            2.90161439382981        1.28072244784656        0.00151733699235
N            1.60601013489270        1.35254360703710        0.00155675872556
C            0.66509983388985        0.41602106995638        0.00095447433014
N           -0.54668176950925        0.94249093221439        0.00032493843124
C           -1.60705036107768        0.16079978209825        0.00079108363513
C           -1.52569761784982       -1.32187810567952        0.00215323500045
C           -2.81750954162459       -1.82328824081104        0.00271305323103
C           -3.70456889461382       -0.73141559132628        0.00170148306666
N           -5.04085552939571       -0.78461714009347        0.00180027704201
H           -5.57415624477730        0.06917469454196        0.00102994147077
H           -5.52246600488003       -1.66656650650768        0.00267397274922
C           -2.95677366493220        0.49896028731179        0.00042509438536
C           -3.56082246195804        1.75441114238254       -0.00098077162738
N           -4.14948776774181        2.74271206897662       -0.00103757459401
H           -3.10622052764067       -2.85745100938375        0.00370693710186
C           -0.26257698827254       -1.88437590810299        0.00227575487426
C            0.87036415284630       -1.06827178986750        0.00134976113953
C            2.11962049675788       -1.70466125595738        0.00000434302749
C            3.39697840529666       -1.18252587312345       -0.00130543007993
H            4.21220089192398       -1.89647427077648       -0.00273199484542
H            2.06728331435846       -2.78898807255152       -0.00038340428431
H           -0.14266611172730       -2.96089990501588        0.00285805747502
H            3.38553931972330        2.25484287937235        0.00286626895960
