29
 energy: -56.782312086633 gnorm: 0.000930557794 xtb: 6.6.1 (8d0f1dd)
N            5.54682261300052        2.00458839371540       -0.00015780913753
C            4.48273999290262        1.57455899145225       -0.00118179997106
C            3.17212285432747        1.04054415974388       -0.00042444339018
C            2.14707715313605        2.00325650559246       -0.00061791560155
C            0.79265440155565        1.83406090838919       -0.00046320293848
C           -0.01630669004675        0.67016197974458       -0.00015701351791
C            0.49110761460913       -0.70409937879074        0.00021123106830
C           -0.45230510902694       -1.77415207162618        0.00060401104655
C           -1.79124477419910       -1.53736425023136        0.00069233108812
C           -2.31258360835753       -0.17438586115922        0.00029667190735
C           -3.69322081903362       -0.31455144708770        0.00014177980236
C           -4.69164454759842        0.65807403285123       -0.00182341644438
N           -5.54312221211133        1.42963172288032        0.00209853214818
C           -3.91585427064018       -1.74334806789239        0.00094093954605
N           -2.81687253747918       -2.44458667668132        0.00119758915349
H           -4.88073704872631       -2.21847097314534        0.00095739674481
C           -1.40131295528693        0.89311044497420       -0.00000184337429
C           -1.93190448546354        2.20345301168105        0.00182807938805
N           -2.38688768381819        3.25654436024975       -0.00331922374019
H           -0.10720551365888       -2.79612940954362        0.00086550682859
C            1.83418976273041       -1.09625732188939        0.00021432713816
C            2.06936903806640       -2.50023498600743       -0.00061696866003
N            2.36050252109226       -3.61064059680850        0.00181974716600
C            3.06696541576888       -0.35966580092375       -0.00008140468644
N            4.21756255715939       -1.06780798031838       -0.00007778364935
H            5.10060809897977       -0.58463295935782       -0.00025907564035
H            4.21589273578352       -2.07355960975159        0.00016209852972
H            0.22249324309482        2.75562186774844       -0.00072413530742
H            2.49963391203973        3.02726479079185       -0.00100834399656
