30
 energy: -55.730978712622 gnorm: 0.000595604636 xtb: 6.6.1 (8d0f1dd)
N           -6.16191459594549       -1.22620952587185       -0.00503819103819
C           -5.03022204914407       -1.02947714822781       -0.00266508686827
C           -3.64194148115675       -0.77294768851154       -0.00192202030832
C           -2.81704439629108       -1.90967397845827       -0.00065150632122
C           -1.45236726781638       -2.00251225233768        0.00053716881026
C           -0.43252034765183       -1.02169724904948        0.00089740713299
C            0.87358527875882       -1.50075636227408        0.00214786911582
C            1.95982491992874       -0.64108306143623        0.00268042281228
C            1.74281216601435        0.80834785183622        0.00191485450394
N            2.90257216793282        1.48271321471830        0.00252571618955
C            3.86488066320712        0.55734222677251        0.00377196874404
N            5.15863963548837        0.88060280060438        0.00475636798447
H            5.86526375799167        0.16584699700748        0.00569934971940
H            5.41467317089585        1.85257845619134        0.00442252377547
C            3.34422485751718       -0.79343817349094        0.00404607228668
C            4.11683432860871       -1.94581587166908        0.00579521303747
N            4.79201591985013       -2.87874354035882        0.00472244932538
C            0.45153889289498        1.30480039946794        0.00059977157679
C            0.27493293456681        2.70347678117739       -0.00085640908442
N            0.12309135776689        3.84175548979740       -0.00038892023749
C           -0.67689195378598        0.42317397332765        0.00011201650489
C           -1.91406704108609        1.04291200622698       -0.00115515728273
C           -3.24329927095377        0.57702902509218       -0.00216584280634
N           -4.20829070020286        1.52767470526286       -0.00343847785740
H           -5.17993946628637        1.26905619376837       -0.00410190605064
H           -3.96382887581137        2.50163244457929       -0.00368373177540
H           -1.85869677643445        2.12764484204709       -0.00146355477187
H            1.04711617056283       -2.56760557557805        0.00274014898194
H           -1.07061145788456       -3.01683448516349        0.00145148792520
H           -3.35700536733421       -2.84927608485007       -0.00059735612427
