21
 energy: -40.600428230858 gnorm: 0.000877242918 xtb: 6.6.1 (8d0f1dd)
N           -5.42962905352014       -0.27837198013077        0.61061011194214
C           -4.31228785973869       -0.15541768735092        0.38449141453866
C           -2.93347347881591       -0.00893318672795        0.10907503453028
C           -2.25274069923340       -1.15427341326944       -0.40328933785575
N           -0.99391384715760       -1.39542875764712       -0.42414491138982
C            0.06385938916808       -0.65033610183083       -0.09120040068701
N            1.15389461291974       -1.32120805473543        0.18636554618252
C            2.31804135387040       -0.71635038933942        0.17883410142923
N            3.51025071080932       -1.13407593149379        0.56012948683423
C            4.32944379247751       -0.10392777490544        0.26229133478165
N            3.76947658753501        1.00589403569266       -0.19803144397651
C            2.46391367629614        0.70529406050910       -0.27262130007193
C            1.32732220239376        1.46264085165536       -0.35575420456295
C            0.07407077879091        0.83325656935972       -0.18811506980698
C           -1.06437971882655        1.62431397371773       -0.07521187225441
C           -2.37408079292108        1.25474249148944        0.22051559024065
H           -3.05281959632460        2.05841764535081        0.48056382932332
H           -0.89223657104173        2.69200199107267       -0.15741191383587
H            1.37896356555328        2.53893119315888       -0.44166212600025
H            5.39040735383289       -0.18039694650393        0.41613972708375
H           -2.87507760576680       -1.95592981327311       -0.79209222544569
