26
 energy: -47.216172662177 gnorm: 0.000599116857 xtb: 6.6.1 (8d0f1dd)
N           -0.96209255559733       -3.64511064002434        0.06178279527119
C           -1.03045440663494       -2.49852450601569        0.02500892734568
C           -1.20912069867408       -1.09783992211560       -0.02492088986663
C           -2.54205831096014       -0.64216120889313        0.12100981969940
N           -3.49180503654793       -1.57645017902699        0.38624668253155
H           -4.46303385552803       -1.32393209159323        0.36740256685214
H           -3.24826596860146       -2.55226646184954        0.37609231122822
C           -2.96998396881818        0.67831733653637       -0.03096409174361
C           -2.17935386056048        1.82070674104817       -0.17612607990791
N           -0.89144505895014        1.95027093910644        0.11689617941659
C            0.08075301900072        1.08157110873228        0.14716661075827
C            1.35305121752636        1.58918119483998        0.52317974026297
C            2.45101492480627        0.78837930812327        0.41048645031872
N            3.76573044930602        1.05507935650302        0.55865151873053
C            4.40300744520085        0.01012509663911        0.04853912743243
C            3.55641137042815       -0.99254809159879       -0.47589692823387
C            2.27674909642394       -0.56072698524713       -0.19785681270123
N            1.07632027311355       -1.08028770890281       -0.40101177385665
C           -0.00093608366457       -0.36846203781195       -0.16457923157459
H            3.85677827043622       -1.91244256765399       -0.93468647319574
H            5.47963099515718       -0.01409925990179        0.06097943669596
H            1.42729610498523        2.63579376560298        0.77576294547825
N           -2.77357030914972        2.98748709711593       -0.53769291897702
H           -2.22382195590217        3.82631353046553       -0.47096465804453
H           -3.77389052364912        3.06715973417660       -0.55926879879057
H           -4.04120608264593        0.83740626734514       -0.01054513402948
