27
 energy: -52.537584284985 gnorm: 0.000848970515 xtb: 6.6.1 (8d0f1dd)
N           -4.36919115592161       -1.88438612805003        0.85209782907573
C           -3.76453078572241       -0.96835403201464        0.51148737428348
C           -3.08500511611514        0.17770197257029        0.09610631963292
C           -3.75499239728869        1.38329097779744       -0.37711447832475
C           -2.83673616328763        2.32732710603399       -0.68566182547261
C           -1.52958078117606        1.77996990568629       -0.42386405878515
C           -1.72553983083403        0.40744547093900        0.05716883640078
C           -0.59613202676280       -0.41301010766160        0.29816010316929
C           -0.77895292047149       -1.76479785598947        0.66208359035274
N           -0.93507677022648       -2.84059590897892        1.02719539480526
C            0.67643216503406        0.13086930221621        0.19045000897801
C            0.82032951748266        1.59357966949693        0.03129493558150
N            1.83917588361985        2.28295370889256        0.43661731586039
C            2.97924163407947        1.85188174081820        0.95681051885554
N            3.66139882444915        0.80239543780778        0.63308591448834
C            3.18400449544586       -0.26523963716935       -0.03011393158221
N            4.13543675983754       -1.03848159171938       -0.58590289409685
H            3.91163732626726       -1.93886206010047       -0.97547835579659
H            5.09599401402968       -0.78494424460245       -0.43125564652504
C            1.82929360723172       -0.67507110762298       -0.06602064338486
C            1.62049127055479       -1.97135090331313       -0.58389158588482
N            1.55579258469814       -3.00876571370720       -1.07438568947523
H            3.46713150361203        2.55110031973029        1.62752585612604
C           -0.29503513952140        2.33789295923740       -0.47124514728444
H           -0.13432149631504        3.37542709708588       -0.72104464464843
H           -3.01847520703504        3.31760538480018       -1.05581877670412
H           -4.82397016536590        1.46726090661798       -0.45137035594176
