28
 energy: -53.054577313183 gnorm: 0.000656677236 xtb: 6.6.1 (8d0f1dd)
N           -6.01099897829412       -0.17877867013664        0.85303598534330
C           -4.91607301357813        0.02585568906260        0.58506168675298
C           -3.56133447479531        0.28695934425540        0.25614671417460
C           -3.15431782688008        1.60071775174873        0.27324287623700
C           -1.89331766350896        2.11612179617884       -0.06038764420603
C           -0.66629423533367        1.49513718975716       -0.20941725261202
C            0.44893065588079        2.37011004975858       -0.38661631856029
C            1.72403502587058        1.91791386590678       -0.26784455767309
C            1.98251425567150        0.51458805469386        0.04265859796006
C            3.34987371493409        0.36933958770067        0.18805299094012
C            4.08007918082818       -0.78079818995084        0.49667939256578
N            4.73127892887252       -1.69271479415685        0.74962998991332
C            3.95731836321614        1.66494642889336       -0.04889430593488
C            2.99401610069436        2.58229512560707       -0.31976476925815
H            3.13296903162059        3.62422105043145       -0.53501974744306
H            5.01809697703796        1.83248337877685       -0.00803420930534
C            0.89491004259083       -0.38785142267341        0.08135881836515
C            1.16923029928555       -1.73607606896833        0.41494118927887
N            1.42522814276337       -2.78710530401444        0.79431178293656
C           -0.40580015161539        0.06003588598186       -0.11125608527109
C           -1.44562283494155       -0.91929035053324       -0.33625146996325
C           -1.03282251043979       -2.15560429592455       -0.91007545855956
N           -0.80567103430510       -3.11643024118262       -1.49162269974955
C           -2.79882053284300       -0.83789048330936       -0.15950141166357
H           -3.36726991242958       -1.74092012678597       -0.35124413630492
H            0.25457545699882        3.42047655878998       -0.55208526279303
H           -1.86588514250020        3.19731417654550       -0.13213852821274
H           -3.90923452019756        2.33385138204259        0.53045941934568
