30
 energy: -55.724837787790 gnorm: 0.000481229642 xtb: 6.6.1 (8d0f1dd)
N           -5.97384016773886       -0.57398043756356        0.00865258791709
C           -4.82813892939628       -0.48928381881377        0.00741336264047
C           -3.42178266664624       -0.36787635610644        0.00358811906987
C           -2.70765666873533       -1.57714147957308        0.00295982472539
C           -1.35838824395511       -1.80040629741715        0.00013842517697
C           -0.24866793043839       -0.92206265354959       -0.00305196758834
C            1.01680584741522       -1.52315161645519       -0.00538125125026
C            1.17549295431797       -2.92325786626626       -0.00487056191868
N            1.36669076582252       -4.05630509138420       -0.00349531740510
C            2.19795313676710       -0.75670415511126       -0.00864317606982
C            2.09599167859923        0.71178388245390       -0.00968712045997
N            3.30870767706751        1.27718859098575       -0.01287239764216
C            4.17911238707888        0.25637831645415       -0.01397734193534
N            5.49606301637291        0.47693699360474       -0.01714817417845
H            6.14944259604467       -0.28510429963555       -0.01807200737047
H            5.82372192468259        1.42719503730672       -0.01880531455563
C            3.54039299235307       -1.02974018811648       -0.01142531070668
H            4.03240851332730       -1.98158008358577       -0.01170228454779
C            0.85341638079024        1.31565381538623       -0.00737882930710
C            0.80030833317253        2.72472021211286       -0.00789177687207
N            0.75090364631485        3.87213539638239       -0.00996493123385
C           -0.35187662695438        0.53785901298380       -0.00404410671229
C           -1.52531081707591        1.27061623483322       -0.00195388588410
C           -2.89383642962188        0.93626478011682        0.00140781344101
N           -3.76106339837212        1.97673733172649        0.00268093623909
H           -4.75322146873208        1.81354877869117        0.00488718741555
H           -3.42303726230118        2.92230464060107        0.00101037887182
H           -1.36676344742727        2.34504606541111       -0.00315785255703
H           -1.07599725800029       -2.84732278634588        0.00042770661677
H           -3.33236154773068       -2.46248500832669        0.00511083808152
