22
 energy: -40.337389101046 gnorm: 0.000745930419 xtb: 6.6.1 (8d0f1dd)
N            5.56584985851188        0.06593119850586       -0.00093903031523
C            4.42048887758941        0.04569383797903       -0.00033665233716
C            3.00047245832814        0.01640420979264       -0.00013761114285
C            2.41822678271427       -1.25191084162542       -0.00122012724658
C            1.07754957107554       -1.58313008931488       -0.00125061082478
C           -0.08150511845681       -0.79834256171871       -0.00025446911798
C           -1.30605172406175       -1.49322271514850       -0.00063223221919
C           -2.47152216472104       -0.77231526649376        0.00034196343642
N           -3.77156577486986       -1.10078614615991        0.00039873230969
C           -4.39055443146429        0.08028158436334        0.00175013398911
N           -3.63147895770782        1.18799894826377        0.00258927054274
C           -2.39032350942184        0.71428082934884        0.00176447310334
N           -1.24936610523122        1.37039673529960        0.00209397038606
C           -0.11557823381858        0.67768792124377        0.00115300788970
C            1.01120403603302        1.52222001148524        0.00165683310312
C            2.36153723346245        1.26134867722680        0.00111332027239
H            3.01905992632078        2.12233418858716        0.00176311482152
H            0.72296020142354        2.56671061121358        0.00262847982374
H           -5.46391011727759        0.14616782960180        0.00214483649728
H           -1.31750303953441       -2.57446112558336       -0.00164722603837
H            0.88085593512813       -2.65045552294796       -0.00226589742786
H            3.11412948877804       -2.08251960531894       -0.00211513400508
