24
 energy: -43.773434319114 gnorm: 0.000667689121 xtb: 6.6.1 (8d0f1dd)
N            5.23961236366182        0.22892315589396       -0.70444858670565
C            4.11288682408589        0.28677054220130       -0.48867509978341
C            2.73232545465853        0.32357182967716       -0.20862423836529
C            2.09525437328487        1.55261049456325       -0.22815718969013
C            0.76556059057671        1.83511578431142        0.07130524629934
C           -0.33033317111498        0.98433564566036        0.14433049042179
C           -1.60463190558021        1.53226713948173        0.37142500614925
C           -2.71565279586769        0.73920168409710        0.21970439285498
C           -4.10068334211390        0.91261230363358        0.19388010619414
C           -4.61218893227359       -0.28322787527589       -0.29896990558192
N           -3.67192815345835       -1.19452595893251       -0.63324892534730
C           -2.51068506546173       -0.65001329780907       -0.31723798704440
N           -1.31934963538198       -1.19382831930579       -0.42603584978396
C           -0.25101995380189       -0.48919779322993       -0.10660572407959
N            0.84037582321313       -1.21011888553016        0.05763873923899
C            2.10900698721301       -0.92519245136876        0.15174678581828
N            2.90181182821692       -1.93605650276306        0.56440993947152
H            3.90374566457973       -1.86751621127201        0.51282588211751
H            2.47023075654857       -2.83429975837278        0.70140853987451
H           -5.65010567494631       -0.53071830581716       -0.44057135526241
H           -4.65986449260704        1.77155843590069        0.50908536517177
H           -1.69333671101359        2.59082045478413        0.58529650701133
H            0.53841712600505        2.88858857578917        0.19859909310744
H            2.72898631067656        2.40628598998335       -0.43838123058740
