30
 energy: -55.723891416984 gnorm: 0.000620648023 xtb: 6.6.1 (8d0f1dd)
N            6.08975651431944        0.71316064026339       -0.00183269531112
C            4.94215631708210        0.67240688803612       -0.00318586608233
C            3.52865665221125        0.62776486614515       -0.00114906245161
C            2.90582740605358        1.86507040691634       -0.00161637029577
C            1.55789694021189        2.17626555396791       -0.00088010926906
C            0.41549677790783        1.37441915450963        0.00048075090650
C           -0.80223612921501        2.07718028542308        0.00090096667460
C           -2.00923331169912        1.42287711505969        0.00223833335246
C           -2.02886280019239       -0.04236203124965        0.00331116538059
C           -3.37701821527989       -0.38344493221480        0.00478098069008
C           -4.00017028968508       -1.62337656637823        0.00677835761966
N           -4.56972912225730       -2.62408624849844        0.00595090010672
C           -4.07729596869524        0.88645303681834        0.00424956121351
N           -5.40423820324883        1.02214535410624        0.00520311800169
H           -5.99874051371331        0.21139671164719        0.00628332227936
H           -5.80018294703097        1.94591871548477        0.00482278332793
N           -3.25249568991506        1.93581727792981        0.00280243279286
C           -0.83349640057250       -0.74727007476147        0.00287910791635
C            0.39582857673871       -0.09886992527892        0.00144119098373
C            1.55303476497653       -0.93769123654215        0.00106520847634
C            1.28532547581589       -2.33077588653469        0.00254567566103
N            1.16558383579720       -3.47398661011828        0.00079432250122
C            2.93502953220081       -0.66834372796358        0.00012948326346
N            3.79786389650503       -1.71486055387524        0.00049396361636
H            4.78961494494154       -1.55027277749264       -0.00074163257158
H            3.45920286205323       -2.66132371303016        0.00087356321254
H           -0.87441690318187       -1.82673879738957        0.00364045346572
H           -0.78996220094435        3.15634143629885        0.00019948235702
H            1.35000028954320        3.23956176190601       -0.00148681249711
H            3.58230917757186        2.71193091801536       -0.00276981422152
