29
 energy: -51.187552228692 gnorm: 0.000448665708 xtb: 6.6.1 (8d0f1dd)
N           -5.59906120070390       -1.00213295686126       -0.02510483720570
C           -4.45571836314507       -0.88637224915648       -0.01740482471086
C           -3.05095427664550       -0.74519556810687       -0.00968004149877
C           -2.34047604858543       -1.95150117300132       -0.00710372869552
C           -0.98625759851995       -2.18337353812574        0.00066011120865
C            0.10814780852873       -1.30429534229287        0.00892247130013
C            1.38468904209008       -1.86517211145219        0.01585439757235
C            2.50724588844141       -1.05378376737410        0.02457669181423
C            2.28628960849343        0.42077819253858        0.02622098192999
N            1.07605661599175        0.95545540461450        0.01949133378587
C            0.00620749152876        0.16904743661231        0.01101284993580
C           -1.18329007741802        0.92591282448300        0.00451192127965
C           -0.92027794326661        2.32223379349497        0.00880267465688
N           -0.81981139355134        3.46674684759412        0.01211228295814
C           -2.55263652759015        0.57717920701102       -0.00499795665193
N           -3.45767868485183        1.58762266192963       -0.01044281680637
H           -4.44225166198598        1.38579603011663       -0.01488447711145
H           -3.14671132764058        2.54351761847865       -0.00522447899164
C            3.52010614482163        1.03327328782684        0.03538842561473
C            4.49651997184369        0.00878859179948        0.03947669358758
N            5.82450746849260        0.21059045190776        0.04855120142375
H            6.45959342217887       -0.56747524845946        0.05025435821851
H            6.19462834339612        1.14420944588237        0.05216262756402
C            3.86889699491869       -1.26504785744255        0.03283299895877
H            4.38071405033211       -2.20909736640676        0.03415086444759
H            3.71314767737136        2.08734466745232        0.03881300546569
H            1.48833294698380       -2.94308920259287        0.01444800126686
H           -0.70597008162682       -3.23139608218817        0.00062925537112
H           -2.96957850008194       -2.83446753718158       -0.01209650418805
