29
 energy: -55.204938103047 gnorm: 0.000987865370 xtb: 6.6.1 (8d0f1dd)
N           -1.94757560197990       -3.83652999344264        0.12579462748663
C           -1.83566796219121       -2.69262111923124        0.08923211038579
C           -1.80166146712904       -1.27888803320457        0.04587566264653
C           -3.08521098516581       -0.69023897308484       -0.18688403630955
C           -3.39525274699928        0.65533774752477       -0.05726083965489
C           -2.51100639875659        1.71007915007122        0.22049179467625
N           -1.19879164688764        1.72004988048361        0.09366713990158
C           -0.30238766632991        0.76718683064799       -0.01400365991282
C            1.00843321132618        1.23752727972940       -0.26063075969081
C            1.19685913485330        2.60893814773422       -0.52197246034197
N            1.35024534421869        3.72397064387627       -0.74635561041150
C            2.08807720053531        0.36852407698492       -0.15270963333172
C            1.85058135514939       -1.04104980101572        0.23467803779233
N            3.03566069142783       -1.64390581744572        0.33287873176287
C            3.91374360730328       -0.66614841733238        0.02110974905702
N            5.22665159003668       -0.87813053620219        0.00206200567697
H            5.84044931840056       -0.11806726479977       -0.22981346157777
H            5.57916967061840       -1.79150275642035        0.22452413414563
N            3.39333276716914        0.55586037714810       -0.27479340723331
C            0.57016983132666       -1.52652726620881        0.38155414244167
C           -0.53130050635072       -0.68750653958677        0.17441886746175
H            0.42278804011487       -2.57319042524326        0.60053752043113
N           -3.02418152834281        2.91064402768612        0.58439994724083
H           -2.38225454329228        3.68398701439805        0.62751161943737
H           -4.00836492134000        3.09579560029256        0.51791983708389
H           -4.43978090596637        0.92006760540756       -0.16621750328376
N           -4.10013276663275       -1.53277296740100       -0.51147030316393
H           -5.03654714427457       -1.18042408647993       -0.58452417854507
H           -3.95803572314155       -2.52760501928469       -0.52070358217115
