29
 energy: -57.569486835041 gnorm: 0.000828043583 xtb: 6.6.1 (8d0f1dd)
N           -6.01977602959826       -0.55458151068960       -0.88765806574437
C           -4.92732907134117       -0.33398991094387       -0.62433235427687
C           -3.57285595874477       -0.05949032698737       -0.30054403312802
C           -3.15318578343527        1.24588038212196       -0.40731580533664
C           -1.89305193440196        1.77432842258545       -0.08736345821034
C           -0.67524194262648        1.15255956851256        0.11468895753603
C            0.46121689018875        2.02587001061764        0.27106342664006
C            0.27300176182707        3.41465946690159        0.46415613443059
N            0.15203859140000        4.54158958596359        0.63634702628931
C            1.74120324821018        1.54295858254293        0.17057470042415
C            1.97111293112769        0.12383805445988       -0.09660817507684
C            3.33628647173484       -0.04748267548825       -0.23943982097925
C            4.04229109875849       -1.22116593242413       -0.51692542265285
N            4.66891992327982       -2.15576599631073       -0.74624339848257
C            3.96362747246329        1.24306648754647       -0.04168397069464
C            3.01416394639636        2.18756528190621        0.20387299231094
H            3.16833173347403        3.23356709792302        0.38691694618608
H            5.02643263819367        1.39466390046389       -0.08784759544108
C            0.87109973716743       -0.76000798469215       -0.09376283891157
C            1.11874390492721       -2.12654233799639       -0.37192997695943
N            1.34334742095758       -3.19835131509857       -0.70912876905106
C           -0.42423393537057       -0.28530182031330        0.08756270350209
C           -1.47072937875447       -1.23941866281752        0.37737514081341
C           -1.05948822981945       -2.43781618839688        1.02858667269809
N           -0.82358336356370       -3.35785682600620        1.66897127394406
C           -2.82405656029403       -1.15815997109984        0.19967962601436
H           -3.40007148028136       -2.04044526943490        0.45422259367001
H           -1.86113276401198        2.85822747715344       -0.07444169813420
H           -3.89580990456758        1.96705599440370       -0.72569593347835
