27
 energy: -47.752169750400 gnorm: 0.000245249498 xtb: 6.6.1 (8d0f1dd)
N           -5.88919605368179       -0.04440503200449       -0.00305939719720
C           -4.74423466132219        0.03712699752672       -0.00120696148533
C           -3.33215185409122        0.12754057804173        0.00019106703254
C           -2.81971652071397        1.42710824785307        0.00006100190438
C           -1.51079223359971        1.85660505910737        0.00035018715064
C           -0.29321756796959        1.16078136128761        0.00053399725895
C            0.86395486444245        1.94316515151149        0.00017411673635
C            2.11870171022873        1.36679590721654        0.00016397437631
N            3.32243843720337        1.94699784194475       -0.00028076525333
C            4.21589472387651        0.94956574469506       -0.00004073637318
C            3.63710093749265       -0.32965808344005        0.00057369383872
C            4.28270487597067       -1.56342406102753        0.00098360995242
N            4.79399436458006       -2.59371036150901        0.00115796687187
C            2.24108662786107       -0.09831524796978        0.00069575880289
C            1.12018060353395       -0.88420426315247        0.00112279555065
C           -0.17106611236387       -0.31210680059799        0.00101242728061
C           -1.22147124370985       -1.21725961590741        0.00142170620232
C           -2.62006495542561       -1.09124623589933        0.00120967642718
N           -3.33619061767312       -2.24569012079549        0.00430456959817
H           -2.87186872213195       -3.13516323190089       -0.00278686571309
H           -4.34091277668252       -2.22383122552352       -0.00222841774829
H           -0.89899534602958       -2.25479263071730        0.00205436737015
H            1.21908392692323       -1.96118965677711        0.00153969240574
H            5.26909676969776        1.17023503935203       -0.00030857130565
H            0.78206772967748        3.01946912284081       -0.00017656627498
H           -1.39591924470596        2.93435438784264        0.00016532144604
H           -3.57314135678704        2.20576917080252       -0.00052153885485
