24
 energy: -44.567126031630 gnorm: 0.000231677520 xtb: 6.6.1 (8d0f1dd)
N            4.94000146478655        1.57156029814172       -0.00432453875622
C            4.11751034050387        0.76881265175890       -0.00285009570934
C            3.10340862472277       -0.19054920289979       -0.00098965062636
C            1.69826602412687        0.09298800958319       -0.00067262610417
C            1.01086235190523       -1.21623691814435        0.00201504806094
N           -0.31732947474794       -1.31822444889610        0.00319180937082
C           -1.05154301962220       -0.23097958721864        0.00253748340689
C           -2.45893127912581       -0.48753116649284        0.00074167160292
C           -2.79697767227564       -1.86972865339677       -0.00019317441370
N           -3.13610864745900       -2.96369002074987       -0.00069095711994
C           -3.52629541157781        0.38702367276338       -0.00098558049168
C           -3.48237627972816        1.78693669691901        0.00068502816000
C           -2.36315229199249        2.59487983524293        0.00317987595328
N           -1.07054817338488        2.29797080908070        0.00151427752819
C           -0.46689228607093        1.13773228301990        0.00103798609897
C            0.95873313852009        1.23117610107847       -0.00122098430861
H            1.39544830055875        2.21971279753472       -0.00229903404049
H           -2.53037540102072        3.66808888888330        0.00554022962260
H           -4.43875627190107        2.29307719967270        0.00000901230062
H           -4.51026862635927       -0.06594003313625       -0.00300356979869
C            1.97523000235813       -2.19986926191150        0.00307195051271
C            3.24428843984747       -1.57064241104927        0.00109983017542
H            4.18604561739205       -2.09076376766696        0.00133050140355
H            1.80249770994414       -3.25823403891656        0.00506232307232
