28
 energy: -52.276105902393 gnorm: 0.000582481930 xtb: 6.6.1 (8d0f1dd)
N           -6.70696495476365       -0.12077990029213        0.00498022640214
C           -5.56199614311963       -0.05511963551721        0.00238462232136
C           -4.14961896008038        0.01988171695782        0.00228365542998
C           -3.46326563409081       -1.21595029322240        0.00130575992906
N           -2.19255852868366       -1.48105568131870        0.00021785006440
C           -1.12542823014139       -0.68499847968716       -0.00039105334212
C            0.08162788870400       -1.38550631561763       -0.00174740294453
C            1.29558341861482       -0.72566793333858       -0.00253177627941
C            1.32287738132826        0.73701254015889       -0.00198755206530
C            2.66685959816101        1.14133617133957       -0.00329954921485
C            3.16341810249106        2.44258061235513       -0.00422617905846
N            3.60483901133874        3.50506210013690       -0.00194201831469
C            3.47486784424173       -0.03291826958533       -0.00436216286129
N            4.81038350354136       -0.05816080568663       -0.00575779468624
H            5.29999016545200       -0.93743417834226       -0.00660328135323
H            5.33463658458481        0.80080753161887       -0.00596466593208
C            2.62385642866118       -1.17675719347891       -0.00416682931318
C            3.08471383269280       -2.49188722397144       -0.00605320657965
N            3.51293052965242       -3.55939156198508       -0.00462392783580
C            0.13885331387867        1.44870076826511       -0.00068977975217
C           -1.09901360814158        0.80300879233104        0.00015795609217
C           -2.23809496300251        1.61886792603426        0.00143377561674
C           -3.58259589946295        1.29429776034192        0.00234576981560
H           -4.27976835268288        2.12362084874815        0.00312705047780
H           -2.02611259787870        2.68248929561782        0.00165723113366
H            0.17210409464224        2.52975090394700       -0.00036067528988
H            0.03578715714876       -2.46373173754860       -0.00220704984851
H           -4.08851698588574       -2.10558693066044        0.00140338208849
