30
 energy: -56.501132315659 gnorm: 0.000840028343 xtb: 6.6.1 (8d0f1dd)
N           -5.72085163974582       -0.28292944708535        1.20024028432229
C           -4.64704841039614       -0.40406516472479        0.81506161448962
C           -3.32139895498441       -0.55262284489645        0.34177520034000
C           -2.84686165747906       -1.83730779487075        0.26646007532161
C           -1.59095905103033       -2.29531017999443       -0.15648840639690
C           -0.39987978188509       -1.60917015915064       -0.28886463830920
C            0.76781078231995       -2.41447808697412       -0.49303380125111
C            2.00852056260725       -1.89331922802811       -0.33307565531875
C            2.17935472022483       -0.49569635668405        0.04020631312964
C            3.53154781694109       -0.28028378354420        0.22724362233793
C            4.18431140078732        0.89127815196145        0.61131408834356
N            4.77265987578694        1.82678850087869        0.92712771175777
C            4.22201643644684       -1.53218097471380       -0.05052012762653
C            3.32277139681900       -2.48562578657525       -0.38426778239353
H            3.52204759142319       -3.50813667755188       -0.64149097714372
H            5.28964022386520       -1.63825139027220        0.01192754044735
C            1.03925473428767        0.34148617131349        0.09790658827135
C            1.21135805981007        1.69152241531663        0.48001318028924
N            1.36271135380013        2.75114701406043        0.89236341729350
C           -0.22986370878332       -0.17405612408710       -0.13468998214964
C           -1.30979222949178        0.76307230464031       -0.36771684898502
C           -0.92195706227044        1.97742386847168       -0.98032435410498
N           -0.70624982329550        2.92705389881602       -1.59043034733886
C           -2.67325048921847        0.65133531889385       -0.12387946933906
N           -3.47602190408370        1.71984683590856       -0.33159951266236
H           -3.08041780000085        2.59910163888671       -0.61966344394944
H           -4.46130807209060        1.66695193669433       -0.13936837243237
H            0.63239703826066       -3.46627044467474       -0.70218938577624
H           -1.52676632461824       -3.36890105470178       -0.28588845296634
H           -3.54866568000688       -2.61141543621366        0.55531330580110
