31
 energy: -61.031897928615 gnorm: 0.000604911168 xtb: 6.6.1 (8d0f1dd)
N            6.56050357586381        0.95312522186860       -0.50690641844357
C            5.42722930488144        0.88087757215732       -0.35458651817607
C            4.02251159364739        0.80088135990399       -0.17403374576400
C            3.31325954156468        1.99699190673237       -0.28692778018515
C            1.96007787551362        2.20160450374380       -0.10401845297747
C            0.88535234710037        1.31298670322102        0.04435200530468
C           -0.38172504875268        1.90870376341084        0.14282064215139
C           -1.53557620356728        1.15972795159874        0.11150997123312
C           -1.45790354790865       -0.28644846744271       -0.07389387070562
C           -2.75626935158571       -0.77995180457546       -0.16182444848871
C           -3.21325536118791       -2.08757792472230       -0.33985221261431
N           -3.69751998979669       -3.12048251900573       -0.47815718737240
C           -3.65693766602182        0.33135668588811       -0.01242778797916
N           -4.98677884738338        0.23810734555738       -0.02873423673702
H           -5.55736584052341        1.05917237696171        0.08740779500792
H           -5.42678888651665       -0.65942307492244       -0.15233913575864
C           -2.89726702245163        1.51600613430215        0.15112976318391
C           -3.42664379821903        2.79526535229964        0.31305587874364
N           -3.88313341418775        3.84244091918419        0.44375683812422
C           -0.19864670979101       -0.90455142044287       -0.10002693723609
C           -0.17317127388021       -2.28878318271771       -0.39382822846662
N           -0.22982758194561       -3.37492478738648       -0.75697926705108
C            0.97784016581400       -0.15300040562856        0.04602146686497
C            2.19248868478987       -0.85662121510442        0.28075173981050
C            2.09379278484293       -2.18214765116272        0.79223894405002
N            2.13915893280860       -3.19130190477859        1.33386472841834
C            3.51597292008960       -0.45491745502736        0.17077323850455
H            4.25445058723580       -1.22625738145394        0.36033572634725
H           -0.45355531469919        2.98520559218468        0.20260823523865
H            1.65933943982724        3.24266454876107       -0.13516037460057
H            3.90842245593662        2.87753149279260       -0.49491161012583
