28
 energy: -57.062840492489 gnorm: 0.000662964244 xtb: 6.6.1 (8d0f1dd)
N            6.08079423222295        1.64118572332830        0.29671229024258
C            4.96696076762317        1.39046075685611        0.20375644152845
C            3.58438927716186        1.08917721252803        0.09588610506828
C            2.70408046915493        2.18521457102405        0.17173126159056
C            1.34248243402864        2.17316799469454        0.05930676510469
C            0.40162167372219        1.11519691468399       -0.02095529496339
N           -0.83660220197478        1.57299031765655       -0.10195655483294
C           -1.84992557341588        0.72264270335549       -0.08333599153432
C           -1.66888954274970       -0.72896179019116        0.10255593069781
N           -2.83860779385851       -1.36181147471638        0.19377445985445
C           -3.77939133629674       -0.41700827352142        0.05246487349063
N           -5.07386587974939       -0.70812349098513        0.07580818060019
H           -5.76501191149343        0.01641634168257       -0.02560269007536
H           -5.35423175759960       -1.66700400632444        0.19919435885715
C           -3.22398611681088        0.91305619396671       -0.11155654481624
C           -3.98033525657051        2.07065419754046       -0.25946347133054
N           -4.65894608234635        2.99121079498799       -0.37731301985735
C           -0.37218012069777       -1.22376543046266        0.16420975556390
C           -0.21187664178814       -2.59378574883020        0.47888914334272
N           -0.17796580055685       -3.68091797850587        0.84121696245425
C            0.71214510018318       -0.32105872207349        0.01246737766701
C            2.00531869086357       -0.84995997532222       -0.18591159112184
C            2.12093951732748       -2.21553209754588       -0.57424685479564
N            2.34218345200004       -3.25337602155816       -1.00745701959222
C            3.26249669101728       -0.23958536705728       -0.13174557191079
H            4.10206103335512       -0.91280510866988       -0.27104938196337
H            0.84584816425757        3.13593112742262        0.06888987615892
H            3.17563085783616        3.15221298050681        0.29559655145251
