28
 energy: -52.256739862174 gnorm: 0.000511543480 xtb: 6.6.1 (8d0f1dd)
N           -5.28586574917888       -0.97832313511752        0.97982885305474
C           -4.18901978944992       -0.91866691953047        0.64922234660708
C           -2.83243770757385       -0.84318427850171        0.25010568693305
C           -2.16504005117193       -2.03917397211286        0.15750239428538
C           -0.83845271597037       -2.28582256470621       -0.21953376190426
C            0.24253228143945       -1.42978468587076       -0.28500052674391
C            1.51374378879368       -2.05063621431167       -0.48867247884098
C            2.65943926828393       -1.35860410750984       -0.26874113729856
C            2.61810286068940        0.04216658691206        0.16820856948814
C            3.92182065172215        0.39370519340812        0.39001090810871
C            4.68393650428405       -0.77789346281128        0.06020902143274
N            3.95806562776570       -1.79629876753342       -0.32215801694903
H            5.75611324728359       -0.86005208599680        0.10398339726381
H            4.31350356519336        1.33397338657802        0.72383905496972
C            1.36321601741957        0.69873785626176        0.22558853575431
C            1.36548501106282        2.03981469529059        0.66556532409727
N            1.43580485095969        3.08956474518551        1.12477303512999
C            0.19095231962866        0.01499629461389       -0.06440025823160
C           -1.00663841075756        0.79077798034769       -0.28086963423275
C           -0.78716388006323        2.09881465869199       -0.77552075216740
N           -0.70363439469081        3.12196003047211       -1.29234956946485
C           -2.35106760372387        0.46354690730145       -0.11860208910262
N           -3.29240751836263        1.41761746814605       -0.30522769957877
H           -4.26632514357307        1.20963552717374       -0.16785107973916
H           -3.01952228641373        2.36063644013285       -0.52572139596765
H            1.55064565490009       -3.10006147098089       -0.73876893910157
H           -0.60842901434854       -3.33166485524263       -0.38290698055313
H           -2.75564328904858       -2.92030409179114        0.38050882465175
