27
 energy: -52.547112829591 gnorm: 0.000425899213 xtb: 6.6.1 (8d0f1dd)
N            5.94280364266544        0.52358153603962       -0.00549815438727
C            4.80034035529172        0.43346919430328       -0.00414521691179
C            3.38537170631255        0.33326671727617       -0.00247033226835
C            2.68568950665840        1.55797890698969       -0.00299111367773
C            1.33505347811077        1.77311287248246       -0.00168015122749
C            0.23475722820430        0.88359646269138        0.00063770780233
C            0.32258809434338       -0.58201664717774        0.00206800059925
N           -0.75250582833462       -1.37417186459184        0.00425646818076
C           -1.94928776493428       -0.84469024758828        0.00527888725204
C           -2.18031093304364        0.62811124375718        0.00400125782540
C           -3.53862601177284        0.78280214310216        0.00567019976297
C           -4.05978969650974       -0.55553460440872        0.00780909102261
N           -5.34619537635936       -0.89609338369457        0.00991331915598
H           -6.07038037524202       -0.19973530310337        0.01013059333948
H           -5.58113964292341       -1.87442722891172        0.01130453982079
N           -3.10200593271834       -1.50225131414960        0.00753801171445
H           -4.11608946369527        1.68581272597500        0.00548130297110
C           -1.04590326399875        1.45635302453680        0.00165379683124
C           -1.24700795407352        2.85322007224825        0.00074966530101
N           -1.46806966143604        3.97996133203928       -0.00095252119739
C            1.51784850011295       -1.33126354004143        0.00129876114622
C            1.31667408292078       -2.74136784229671        0.00255580754691
N            1.25506780457774       -3.88514564320774        0.00417820389435
C            2.86001146989487       -0.94766178566171       -0.00061640002927
H            3.57606681680551       -1.76232678038101       -0.00062585215872
H            1.04078685932753        2.81806871513221       -0.00253725260477
H            3.31187056221590        2.44195299514097       -0.00466872430413
