27
 energy: -51.740329671025 gnorm: 0.000484639378 xtb: 6.6.1 (8d0f1dd)
N            2.55506773187627        3.35731591022867       -0.22120011439277
C            2.25837120160008        2.24957785001989       -0.15669582475735
C            1.96538945154496        0.86404213711020       -0.09771104920528
C            3.10359231420319        0.04639913952444        0.26645426012929
N            4.20409562388047        0.70898220789301        0.70172815316121
H            5.04844381927128        0.20155966102450        0.89453733415843
H            4.23532072649067        1.71363264785995        0.70541794710549
C            3.16338909447716       -1.32190343482450        0.15033922779388
C            2.10271530921972       -2.19657357627645       -0.21620887609827
N            0.82461062970655       -1.96660147154373       -0.11091815258632
C            0.11082522559620       -0.85669637168188       -0.02770409250204
N           -1.15783878685723       -1.04280436565249        0.25736998653478
C           -2.00860193390445       -0.02835439833363        0.18005217962564
C           -1.60716761516047        1.31015292170071       -0.29057233218848
N           -2.69968594690374        2.12401245550269       -0.40212805397608
C           -3.72640603880193        1.39344832317728       -0.06016905820075
C           -3.39223049226479        0.03475818769747        0.28647931685632
C           -4.29528760315427       -0.95557814192429        0.66479545526507
N           -5.06533855887341       -1.75153205640826        0.97367007765451
H           -4.71964121575460        1.80771610602097       -0.04897375652448
C           -0.30330311488632        1.53407260365789       -0.59788250673159
C            0.64424888639347        0.50404372671841       -0.31796674124237
H            0.02225197612426        2.48368609486345       -0.99750992435904
N            2.42860699859761       -3.44571855199230       -0.61768912014318
H            1.67597373122378       -4.10055185102346       -0.74403510982736
H            3.37039736037812       -3.78617044262995       -0.55188158242003
H            4.11494240807903       -1.78888053420886        0.37149916897152
