29
 energy: -56.787499966933 gnorm: 0.000913378137 xtb: 6.6.1 (8d0f1dd)
N           -6.24924190409636       -0.79950171005395       -0.00072121272589
C           -5.10555855200700       -0.70549447185627        0.00186573326991
C           -3.69650857850556       -0.57430677709287        0.00062244596698
C           -2.98360153779614       -1.78634656239690        0.00001025816207
C           -1.63383125560795       -2.00389864654921       -0.00029614712603
C           -0.53768932811415       -1.10869239655613       -0.00008592695149
N            0.62907441190288       -1.73153701262609       -0.00043116550441
C            1.75046178584905       -1.03471847560204       -0.00025505083843
C            1.77520486033373        0.43827467042487        0.00030612042935
C            3.14655193758271        0.83520870194176       -0.00012517662776
C            3.62350049882260        2.15075553118385       -0.00136627860871
N            4.02231501703376        3.22731563312591        0.00304036756254
C            3.91362193524316       -0.31974219406733       -0.00033622804216
C            3.07642534747567       -1.47139946069584       -0.00051803213694
C            3.52095908163234       -2.79639971870382       -0.00082803843003
N            3.89873994848703       -3.88083490014900       -0.00213127147619
H            4.98873346476495       -0.35134823958535       -0.00072710870736
C            0.57875353425350        1.10681384178249        0.00078476044117
C            0.54452669217841        2.52171919310429        0.00238533373291
N            0.49411391093720        3.66730644527017        0.00077523203586
C           -0.65591948709432        0.35375343991016        0.00056542270872
C           -1.81801376624861        1.09063549786029        0.00109482658597
C           -3.18852497421576        0.73815877341840        0.00113049058127
N           -4.06386324791087        1.76710848569929        0.00176407111520
H           -3.73885011668158        2.71784666730469        0.00208951981575
H           -5.05534585875985        1.59585123711041        0.00178122005893
H           -1.66612915456700        2.16685132450983        0.00161174126202
H           -1.30653263160402       -3.03583782001305       -0.00069094800438
H           -3.60991344578761       -2.67029241089847       -0.00015835434884
