30
 energy: -55.726152736212 gnorm: 0.000194053483 xtb: 6.6.1 (8d0f1dd)
N           -6.46651390356732       -0.63613207755791       -0.00099186313959
C           -5.32378011579339       -0.52108797905313       -0.00034966584782
C           -3.91920669586484       -0.36428795362561        0.00008656089095
C           -3.18519238940937       -1.55532247486194        0.00048248606008
C           -1.82658173710186       -1.74831734099492        0.00065006804418
C           -0.75412881063246       -0.83583857397096        0.00036032633717
N            0.42837160924853       -1.43601229034867        0.00047346986505
C            1.53052847543537       -0.70749265801129        0.00018022356507
C            1.51335208511403        0.76288373500714       -0.00021160368494
C            2.85507632301402        1.20637381071713       -0.00044167018287
C            3.29884339908461        2.52559113579560       -0.00075603017426
N            3.68050398806386        3.61158748134132       -0.00087484005862
C            3.68278509702010        0.06376585604416       -0.00017855237827
N            5.02054622825578        0.05491858199543       -0.00027832447798
H            5.51814355870234       -0.81938899815322       -0.00004944076906
H            5.53364714908259        0.91999500695397       -0.00057435366329
C            2.86315304541544       -1.11778470800763        0.00027737636034
C            3.37914983795583       -2.41126179492592        0.00091951435846
N            3.87126800990639       -3.45114237833736        0.00056126596447
C            0.29920694343845        1.39383567665296       -0.00029189251990
C           -0.89200218463185        0.62932017494383       -0.00002372009040
C           -2.08231376282139        1.34228304099076       -0.00012576164939
C           -3.43263501620053        0.96346162420379       -0.00004713146778
N           -4.34532425241170        1.96751807694391        0.00051927526681
H           -5.32956056372084        1.76309291970296       -0.00130327771937
H           -4.05008730536590        2.92670515464928       -0.00181452131663
H           -1.94489562313720        2.42050796492681       -0.00030346653417
H            0.23904988360909        2.47412587675649       -0.00054141543005
H           -1.48469599598444       -2.77547866943249        0.00097780156426
H           -3.79167156450336       -2.45353340364443        0.00063912642750
