26
 energy: -52.811009985830 gnorm: 0.000651197733 xtb: 6.6.1 (8d0f1dd)
N            4.96344719178064        1.79419272424481       -1.07385280285374
C            4.17232146567442        1.01558264192604       -0.77690080821226
C            3.23586461602914        0.03968162019403       -0.43630571799942
C            3.53197547483294       -1.38192201846322       -0.31544945022059
C            2.42586843079708       -2.05820352443931        0.08143571022318
C            1.35555174376351       -1.10993096086077        0.19705454105105
C            1.89940799177055        0.21811871946827       -0.13828937987620
N            1.20820676491649        1.34441984407133        0.05612777983907
C           -0.04150826360806        1.28399499065823        0.41446082956865
N           -0.61528343216148        2.39939857028852        0.87582538201754
C           -1.85718431166324        2.70139507877632        0.97490958518028
N           -2.88297897568722        2.21664341225681        0.27185074911913
C           -2.95686765947907        1.03125554681223       -0.25561567203104
N           -3.95062249726294        0.80682833251675       -1.12502618218923
H           -4.15271637128815       -0.11467249383184       -1.47580564435671
H           -4.57492440904220        1.56855239464753       -1.33260165538047
C           -2.08973621987389       -0.11235637316061        0.07742756757755
C           -2.66173306562972       -1.37248213522316       -0.21388727028272
N           -3.20763628710417       -2.33716845702205       -0.51348994856893
C           -0.76923546404820       -0.01832514867113        0.44677158410338
C            0.04642038765189       -1.20709427398488        0.57811622050756
C           -0.48603206592788       -2.41165396855933        1.08839316923681
N           -0.86423071041417       -3.38636972241285        1.55849495815545
H           -2.10054515713477        3.55769902221956        1.59388580099786
H            2.32681951391272       -3.11373824762419        0.24857434964873
H            4.50471612499636       -1.79552869932431       -0.51037725095450
