29
 energy: -51.197429956713 gnorm: 0.000780863191 xtb: 6.6.1 (8d0f1dd)
N           -4.69264769567351       -1.96920494430680        0.79593780142155
C           -4.10112165164342       -1.01766813579145        0.53149371581168
C           -3.39939926617662        0.14238785014193        0.21855386522492
C           -4.00537621372615        1.43885791605235       -0.02198802408754
C           -3.04352079825571        2.35475861160479       -0.29105949166977
C           -1.76918043599132        1.68700046896441       -0.23233869944180
C           -2.02619432351801        0.28505191164128        0.08626386224804
C           -0.95816762792078       -0.61311438024054        0.15639113659509
C            0.34578140975962       -0.19383144071500       -0.01148468767867
C            1.37481111350008       -1.19701265739916       -0.09339007613213
C            0.93947225940579       -2.53434621652552       -0.17659705152714
N            0.66306695790144       -3.64891638444808       -0.25348770868804
C            2.77070978269323       -1.05425661761218       -0.13360587976427
N            3.51051655193397        0.03327240274671        0.13233964604085
C            3.12510247199472        1.27496609139111        0.18753240592361
N            4.09634608313091        2.16013034171628        0.51546007074773
H            4.98861463308575        1.79430907984576        0.79773720075568
H            3.88409219154540        3.12417569805558        0.69540706176775
C            1.84374259266319        1.83779209339484       -0.12858653355707
C            0.61826471196041        1.23506347129074       -0.19744596471516
C           -0.49769997602435        2.12250412887235       -0.38640049175222
H           -0.28810642646400        3.16265944891228       -0.59564305919473
H            1.85857438815742        2.91393500556943       -0.26090551361770
N            3.53990460872149       -2.13852998961555       -0.40357296435040
H            3.13099621725983       -3.05423944557412       -0.46922814828370
H            4.53249957304356       -2.04275617931230       -0.28671047206323
H           -1.16790115028650       -1.65995360189086        0.32214544253509
H           -3.18109425682254        3.39693260548213       -0.50919031761626
H           -5.06670599125389        1.60937808984956        0.01696838246776
