25
 energy: -48.300130758652 gnorm: 0.000631440469 xtb: 6.6.1 (8d0f1dd)
N           -5.71150770785026       -0.96071805060822       -0.29221709268473
C           -4.57751191110758       -0.79264129689408       -0.21636967229316
C           -3.19423859547176       -0.55548450026663       -0.09591695942809
C           -2.33036392085907       -1.63633820694471       -0.29741990882691
C           -0.96212977976059       -1.67802318849228       -0.16413002516418
C           -0.03549619525925       -0.62954336724352        0.02304622871706
N            1.22217829169061       -0.99248462920685        0.15326393020049
C            2.18383833381139       -0.10287747706613        0.00543402032447
C            3.56313191525740       -0.15091193274543        0.20025838151656
C            4.34713281815569       -1.21879320969301        0.63410037311304
N            5.00797659666730       -2.08674614230168        0.99523453943080
C            4.03179272402315        1.14205218188936       -0.19437214798521
N            3.07606285207632        1.97338694424121       -0.54484771931046
C            1.91187085141188        1.29211853105312       -0.41545186871330
C            0.61757689333812        1.72003194334047       -0.43238028060721
C           -0.41677330393467        0.79412784086215       -0.12854952896683
N           -1.61375423395597        1.30520619945162       -0.00819146220510
C           -2.80097706528045        0.78031430377947        0.21937777589946
N           -3.72979264866491        1.64526758428255        0.66867872730435
H           -4.69613911044696        1.37643350050395        0.74093409791909
H           -3.46967461014403        2.60945793827268        0.78643735325116
H            0.35612296465732        2.75805904578890       -0.56732495377328
H            5.06296596577610        1.44850217199794       -0.22208935051138
H           -0.48782401139964       -2.64322883667780       -0.28812236928746
H           -2.81918676492774       -2.57236259562502       -0.53931122761730
