29
 energy: -56.004946766422 gnorm: 0.000842466911 xtb: 6.6.1 (8d0f1dd)
N           -6.25723061910458       -0.09121477543828       -0.00078502850521
C           -5.11807347347295       -0.24021605118238        0.00200338921411
C           -3.71681100038878       -0.39343375218728       -0.00005130580134
C           -3.21900797058389       -1.68073714521571        0.00015580525003
C           -1.89388101056952       -2.11046028686710       -0.00049982048419
C           -0.70200456448771       -1.39119683993014       -0.00049194301896
C            0.49168166377688       -2.13795451099958       -0.00069931533871
C            1.71693875481416       -1.52167569515006        0.00041203248599
N            2.93906421068715       -2.08999097216462        0.00056789652245
C            3.80989484644172       -1.08482774875233        0.00207952379787
N            5.12846929039886       -1.27179449324637        0.00274214951909
H            5.75261512754498       -0.48301085761349        0.00385547562377
H            5.49025552606349       -2.20977889011790        0.00210902676099
C            3.16600260255079        0.22329677097666        0.00305941167360
C            3.86974804359998        1.42185620085691        0.00529926179921
N            4.53991789262577        2.35711479602252        0.00472755388303
C            1.81078691374062       -0.05476304707405        0.00182084164465
C            0.63374020063351        0.70525229847484        0.00159778088549
C            0.68981908432533        2.11567804076319        0.00244463068825
N            0.74475473938780        3.26134169392095        0.00340719518422
C           -0.62344276354340        0.08528156106027        0.00022639155240
N           -1.63610636058403        0.94871892830774       -0.00053759714079
C           -2.93320366818883        0.82277083163064       -0.00118370027629
N           -3.60019416387145        1.99435051423585       -0.00278380898299
H           -3.05206595977835        2.83785139287404       -0.00299758192844
H           -4.60428464002435        2.03726421654983       -0.00267071084884
H            0.44274315538886       -3.21646282092253       -0.00151251484421
H           -1.77096378757950       -3.18742443234556       -0.00061183490942
H           -3.96524414420272       -2.46715061676605        0.00087345819434
