29
 energy: -55.996678208200 gnorm: 0.000965276867 xtb: 6.6.1 (8d0f1dd)
N           -6.43788509624236       -0.56329913885734        0.00099999779160
C           -5.29303014057335       -0.47672129309864        0.00364074434417
C           -3.88376833835653       -0.35680115229981        0.00126128807030
C           -3.18543308677864       -1.56624421437812       -0.00092818301197
C           -1.83080017575706       -1.80342061502294       -0.00228400688810
C           -0.74254909801144       -0.91712964353209       -0.00186261674563
N            0.44426954192828       -1.53357368567105       -0.00344111273284
C            1.52521620634703       -0.77800047570902       -0.00324047730626
C            1.42940153518191        0.70130204594377       -0.00119688473076
N            0.27025003961299        1.31336390901289        0.00051299646672
C           -0.84071682309250        0.54527241373922        0.00020640254770
C           -2.00642807411739        1.30083621660409        0.00213656247718
C           -3.36429831755695        0.96260934993710        0.00270943867450
N           -4.24795022784501        1.98793005139724        0.00491553509735
H           -3.92002457412174        2.93689133634376        0.00589699126074
H           -5.23826254844293        1.81335673718498        0.00532182110488
H           -1.79748807135532        2.36575486929516        0.00355221659307
C            2.73509660910393        1.21411870697132       -0.00103966766846
C            3.13671344696681        2.54895380173590        0.00182154309794
N            3.51924523464915        3.63366641622337       -0.00006820331946
C            3.62449354499651        0.10785798080790       -0.00330431577400
N            4.95607707787902        0.18239137060854       -0.00386865403417
H            5.41174254539357        1.07996126344380       -0.00296733170365
H            5.50913424174386       -0.65874121259322       -0.00532525438230
C            2.87671669913963       -1.11639061352173       -0.00415062890751
C            3.46066174292889       -2.38146362219792       -0.00465118698183
N            4.00007273249552       -3.39738502937232       -0.01049346110596
H           -1.51828352566506       -2.84022401807415       -0.00383125584971
H           -3.81741994315087       -2.44696514682067       -0.00153244548351
