30
 energy: -55.728338361624 gnorm: 0.000519680068 xtb: 6.6.1 (8d0f1dd)
N           -6.48738978985961       -0.42492187746829       -0.00903266486169
C           -5.33820151269137       -0.41950220188121       -0.00612359206926
C           -3.92949916548386       -0.38371110741732       -0.00178520674214
C           -3.26846827175843       -1.60667618755886       -0.00538827845722
C           -1.90743225555171       -1.85630532777049       -0.00219921011576
C           -0.81630179903309       -0.97955678975396        0.00109949202203
C            0.45834260302401       -1.55043588355532        0.00209681261900
C            1.59705708486962       -0.76938903576437        0.00061023282233
C            1.48009753473003        0.68943498846334       -0.00240129383085
C            2.78124728274765        1.22280678787174       -0.00395314219474
C            3.15347564333799        2.56417169018089       -0.00673986622737
N            3.50268693928427        3.66088989375090       -0.00860238606156
C            3.69713267230438        0.13532408881347       -0.00214871765203
N            5.03008089791312        0.23782456550871       -0.00297140768655
H            5.46704220125352        1.14415245694356       -0.00481588566050
H            5.60199725094452       -0.58993480275286       -0.00166290269499
C            2.96323729356926       -1.08972072713082        0.00037193357510
C            3.54196994693330       -2.35469079265160        0.00138831023748
N            4.05290216103573       -3.38639937995914        0.00584715963982
C            0.23270811783343        1.27480773113053       -0.00246521829939
C           -0.93432150387753        0.50126638971290        0.00059349835916
N           -2.04353013644143        1.22239565101754        0.00397610311197
C           -3.32001763851426        0.91366978468093        0.00615763811219
N           -4.13647481363638        1.99150758181672        0.01654489627212
H           -5.13690948062269        1.89866029793929        0.01221282486613
H           -3.71045141679812        2.90134894617870        0.01719594949291
H            0.12471682616762        2.34838412620098       -0.00365547452497
H            0.55437613346686       -2.62756262418272        0.00337927015982
H           -1.63830416024310       -2.90656148703794       -0.00401939294899
H           -3.91224767330371       -2.47844811682529       -0.01060056236209
