27
 energy: -52.533566314797 gnorm: 0.000956971340 xtb: 6.6.1 (8d0f1dd)
N           -5.35947694619083       -0.97220451920135        0.75051460397608
C           -4.24259796063000       -0.91049243023020        0.49682959597626
C           -2.86008364503231       -0.83811373196951        0.19240592799563
C           -2.19700115981454       -2.05161500261675        0.15063062819874
C           -0.86619338317446       -2.31280705624556       -0.14762164831554
C            0.23669480512394       -1.46852516168102       -0.21677271137783
C            1.48333823219717       -2.10324395480227       -0.41051020313142
C            2.64635945800311       -1.39773986071760       -0.27213287418772
C            2.61277505339157        0.02245865512800        0.13677617833160
N            3.85794896601564        0.42452916202020        0.32797777635283
C            4.59566079564881       -0.66809591104731        0.02252117917031
N            3.94194859049361       -1.76655523800334       -0.32260421302585
H            5.66893057114333       -0.63697892370291        0.06608471005322
C            1.38406120752764        0.68274425774576        0.24258346080691
C            1.38543752454604        2.00899690181838        0.73022398160088
N            1.42116149358047        3.03782351931704        1.23646779873211
C            0.19076625337308       -0.00866729183399       -0.02723199583973
C           -0.97979025981071        0.77231800953156       -0.22286174268351
C           -0.75381694139144        2.10944636429610       -0.64760381697771
N           -0.69440095445680        3.14689142286353       -1.13642307049106
C           -2.35070177281088        0.45571077486266       -0.12228831449984
N           -3.25684202976172        1.44135696502266       -0.29930238631988
H           -2.96056494138813        2.38775090519290       -0.47084607026887
H           -4.23986352418898        1.25160177410738       -0.19860418184193
H            1.51370800324038       -3.16624943720900       -0.59606309966213
H           -0.63367291198567       -3.36381106314013       -0.27075267887472
H           -2.81784319434207       -2.92023753010518        0.33513171860175
