25
 energy: -49.083034140800 gnorm: 0.000649277055 xtb: 6.6.1 (8d0f1dd)
N           -5.99066372406232       -0.93170616490041        0.00124809047578
C           -4.85492437852534       -0.78043785817714        0.00168906107181
C           -3.44932012502373       -0.59539025415164        0.00105678797229
C           -3.00555408107920        0.72493519364472        0.00084035359331
N           -1.78289478117404        1.21833882700001       -0.00007798775506
C           -0.61911653668798        0.61738917751647       -0.00024751833378
C           -0.31156151235514       -0.83500975329688        0.00053670465429
N            0.92133192146573       -1.29731996267265        0.00050789325047
C            1.94223161028422       -0.45186337539180       -0.00035440373802
C            1.77416211201593        1.01959274211370       -0.00139170589740
C            3.06840282056135        1.59574898868046       -0.00213923227198
C            3.97968121530023        0.57364743593592       -0.00158713601646
C            3.30724164443264       -0.70096537464832       -0.00047536815991
C            3.93765787001525       -1.94661587585703        0.00022436384673
N            4.46972379578338       -2.96473830858123        0.00122017707010
H            5.05014062817293        0.67618456468746       -0.00187340641148
H            3.27846617710521        2.64834195072064       -0.00294149718550
C            0.49631755372581        1.52234326142408       -0.00135503248592
C            0.25272867927333        2.91749529628050       -0.00224693588197
N            0.09970352401811        4.05238222995687       -0.00300747956905
C           -1.29854382278030       -1.85424735079480        0.00079682881452
C           -2.66366657567865       -1.77098234692979        0.00089447409927
H           -3.21622059804310       -2.70209439992332        0.00109860164180
H           -0.86058212560756       -2.84508490356181        0.00088084332355
H           -3.76649724183678        1.50038189662598        0.00126167039263
