27
 energy: -47.740080008995 gnorm: 0.000291945132 xtb: 6.6.1 (8d0f1dd)
N            5.21727424017672        1.18417631862726        0.00477866583270
C            4.08372545574943        1.00473894913719        0.00223456181672
C            2.68303793592808        0.79294779242452        0.00030837239307
C            1.92447990273066        1.94157903527183       -0.00085094313010
C            0.53708960969272        2.08987569068302       -0.00314673093755
C           -0.49012640750696        1.16325221407841       -0.00240788115655
C           -1.79392431759306        1.72085106636742       -0.00399593961751
C           -2.90363538217921        0.92877345973627       -0.00116491655311
C           -2.76097241007963       -0.53648859046882        0.00335231239926
C           -4.05154208547339       -1.01693725223911        0.00579955805315
C           -4.87933513378096        0.13821171984034        0.00267731640509
N           -4.21519124698047        1.28020504032318       -0.00140985773408
H           -5.95615455110205        0.14365022304963        0.00343474322190
H           -4.38463631766517       -2.03584944104097        0.00926119557139
C           -1.48082913406799       -1.09168291219537        0.00375640915417
C           -0.34173228030938       -0.30788897563926        0.00062752514076
C            0.91488062072324       -1.00245639490466       -0.00042051850415
C            0.81242689173293       -2.41740509561041       -0.00102140239521
N            0.82430688690024       -3.56682440084173       -0.00147995659775
C            2.24859659405350       -0.57230256411807       -0.00092296993933
N            3.23851141504185       -1.50337485890819       -0.00290942886459
H            4.20211710042152       -1.21832339791668       -0.00108472740044
H            3.02037859732053       -2.48432182505327       -0.00190180883548
H           -1.39141808980612       -2.16837772546329        0.00641161721096
H           -1.90423928902029        2.79501666600326       -0.00683566249716
H            0.20979480441207        3.12291749725696       -0.00513749654142
H            2.49068637988119        2.86569534390057       -0.00021960859479
