28
 energy: -56.284451928957 gnorm: 0.000951092542 xtb: 6.6.1 (8d0f1dd)
N            5.86185465144700        0.36958216504928        0.63146359444303
C            4.72933151761483        0.39026686332004        0.44424321258680
C            3.34189680823121        0.38179242627118        0.19490797840485
C            2.64350776691531        1.56912100487733        0.33229699906363
C            1.29534495615334        1.81980845502027        0.10243741307686
C            0.22802741696539        0.94082880841125       -0.08564864061324
C            0.37943102032186       -0.52670228697528        0.00674431133207
N            1.50337668273993       -1.19496380357231       -0.15364436418380
C            2.76622843138206       -0.86769730362417       -0.22744133288020
N            3.58527061439711       -1.83965696408589       -0.66856711764694
H            3.18207158004855       -2.74192201521860       -0.85883709106937
H            4.58501760982921       -1.73480156043764       -0.63499015563557
C           -0.75707733375542       -1.34094620600038        0.20566816803867
C           -0.57831189674054       -2.73022373359311        0.37240298859416
N           -0.42150259936276       -3.85761164931497        0.51099959553695
C           -2.02748365166783       -0.77803894445521        0.15442404027794
N           -3.23438201213528       -1.31282808576255        0.25290079766217
C           -4.06784444975192       -0.26254128500682        0.04226416653220
N           -5.38594963588537       -0.40092049141418        0.06213743985821
H           -5.78173428496912       -1.30822647053770        0.23573637863098
H           -5.96591037764343        0.40371813207120       -0.09990208105801
N           -3.47939923552400        0.93834210344861       -0.19239467506429
C           -2.18432905340089        0.66820189483047       -0.12890111740587
C           -1.06619423146608        1.49034141202085       -0.23714576698559
C           -1.24618318940812        2.87284746680701       -0.44628383252556
N           -1.38880311074482        3.99735378949063       -0.62529906026858
H            1.01413210964828        2.86607072292265        0.14818163744320
H            3.23924102766506        2.42974209955820        0.61257176235144
