27
 energy: -47.750397316409 gnorm: 0.000722771426 xtb: 6.6.1 (8d0f1dd)
N           -5.74555744578115       -1.00895102059053        0.00383312427457
C           -4.61083963855346       -0.82354863082922        0.00200130107379
C           -3.22722179643712       -0.56460113489115        0.00208579289299
C           -2.37341749138040       -1.69145102154787        0.00385987377878
C           -1.00991989725008       -1.72517610749173        0.00362320661319
C           -0.05259458206001       -0.67198388341633        0.00167104406969
C            1.28335100446409       -1.02384202481554        0.00182251010367
C            2.29062402880268       -0.05877883473157        0.00015488269809
C            1.93605465238246        1.35838021326242       -0.00167205301445
C            3.16381240610043        2.10519388692876       -0.00304052525194
C            4.19324883515726        1.22063585486525       -0.00210013326341
C            3.67769352241287       -0.13332778056951       -0.00005781211007
C            4.44849408430706       -1.29165606756041        0.00172054060612
N            5.07900146186981       -2.25501112558696        0.00179862525669
H            5.24337689340882        1.45208910146151       -0.00265614804081
H            3.23064063029206        3.17621501138270       -0.00448222336621
C            0.63122429600176        1.73136275088620       -0.00181031727046
C           -0.41768944477271        0.75703942613908       -0.00032513037770
N           -1.60219855016993        1.30278741505415       -0.00102067579492
C           -2.83606485304934        0.78932025372923       -0.00021397866492
N           -3.78834537273186        1.74911184844574       -0.00172076560472
H           -3.49037038806406        2.70833594685502       -0.00353429744106
H           -4.76671235362926        1.51976530462766       -0.00163357552186
H            0.33050267283392        2.76817928128344       -0.00312642370233
H            1.55983898753522       -2.06919486986754        0.00323663829439
H           -0.56813872128640       -2.71484368700398        0.00514791789053
H           -2.88749208030266       -2.64472621731890        0.00550945137234
