25
 energy: -49.081869413345 gnorm: 0.000860560580 xtb: 6.6.1 (8d0f1dd)
N           -6.13332109336565       -0.37645994239855        0.17448482674464
C           -4.99683873560278       -0.25050052868616        0.10043007658740
C           -3.59267044158846       -0.09819808585501       -0.00198062741631
C           -3.12192275640257        1.11635331912224       -0.52795096760562
N           -1.92870457862303        1.61785139964669       -0.39063435287002
C           -0.77043375461458        1.10650732593774       -0.07652975550122
N            0.17789681863477        2.02505113307314        0.15908833743801
C            1.42525294941492        1.65638721793951        0.17404098359365
C            2.58706208948268        2.44571439009715        0.34673129453280
C            3.67638859720740        1.63030484654839        0.18121496739682
C            3.26133744490535        0.27768482156592       -0.08678380799753
C            4.12851969435126       -0.79751583049040       -0.29871634760569
N            4.85854821973667       -1.66718243506681       -0.47199447028640
C            1.87644969600180        0.26002793157613       -0.08522887059460
C            0.89354479763854       -0.73079405191983       -0.15551541626666
C            1.24584017033918       -2.09619539139161       -0.26470971843748
N            1.50247801939748       -3.20988969756884       -0.35579112945464
C           -0.45795578561468       -0.35223226826542       -0.05742800944707
C           -1.42917029231074       -1.31654530639121        0.24377541723630
C           -2.79687595305309       -1.18302463774630        0.39223757018764
H           -3.32974257909613       -2.04877822349478        0.76452616607362
H           -1.03413753901329       -2.30619157029118        0.45109822557863
H            4.70834731476276        1.92773296460706        0.24038570540542
H            2.59039914798413        3.49804684151856        0.54950931668164
H           -3.83833275447574        1.78389754642967       -0.99627502227207
