28
 energy: -52.268313190140 gnorm: 0.000410355579 xtb: 6.6.1 (8d0f1dd)
N           -3.69604149773355       -3.37301449855432        0.29969986077141
C           -3.42906889153965       -2.26135262474438        0.17938906698911
C           -3.08487359274888       -0.91774659891879        0.03341910085072
C           -3.92017157796296        0.15766861859222       -0.16293039138173
C           -3.15651383579507        1.35735584554170       -0.26267593490208
C           -1.82608133923730        1.03589726440706       -0.12752762253860
C           -1.72661748466698       -0.40477599671359        0.06302480739142
C           -0.53051114198687       -1.01424878718418        0.21775764485684
C            0.69389964936439       -0.26117009483091        0.14041586313324
C            1.85992806030030       -1.00512948953845        0.09397466067334
C            1.77302071270459       -2.41142762808427        0.22105385088454
N            1.80139001104807       -3.55562446599231        0.32115708075610
C            3.23277794911512       -0.54677264385657       -0.12729851982613
N            3.72355183316451        0.63392280306456        0.10293641134572
C            3.06269218973175        1.76034126668299        0.37658151969572
C            1.73222960146532        2.05363066554906        0.27335889185229
C            0.61242536981849        1.19636530666635        0.06291578648237
C           -0.63654341334495        1.79839860260274       -0.08909220150847
C           -0.76183779601754        3.19961617751134       -0.19083539137739
N           -0.90535007874326        4.33453755509671       -0.28706269225684
H            1.47359403205967        3.09835384608749        0.39611234636483
H            3.73438423910309        2.56978347620555        0.63952124318535
N            4.11578670856988       -1.46488599180528       -0.56770060813425
H            3.87426081691912       -2.43523079282870       -0.67022405961987
H            5.07501471243755       -1.17675197024586       -0.65868623478394
H           -0.47309761315673       -2.08585513583459        0.34834107205456
H           -3.56504136043815        2.33882678253565       -0.41393912559692
H           -4.99209239712992        0.10840533968873       -0.23047425786130
