23
 energy: -40.049939728628 gnorm: 0.000405046727 xtb: 6.6.1 (8d0f1dd)
N           -5.53345485954970       -0.14717553389318       -0.00153127467230
C           -4.38870893545514       -0.08412969157788       -0.00109815990294
C           -2.97505128650367       -0.00421309721100       -0.00080908164524
C           -2.28701309206776       -1.21641580784705       -0.00049741342666
N           -0.99489763878196       -1.46902536180369        0.00000364323410
C            0.04752093193888       -0.67175618321005        0.00025802174687
C            1.27564932605184       -1.37340951918570        0.00075311329597
C            2.46628427159517       -0.70336623256141        0.00099510919578
N            3.72752951891641       -1.19605451758446        0.00145231594316
C            4.52128771010701       -0.13823669549923        0.00149692469177
C            3.83297858573519        1.10206543818107        0.00106526670728
C            2.49334617334123        0.77433939208079        0.00074496127150
C            1.28996433760078        1.47713619180183        0.00032742977818
C            0.07106213130489        0.82355931537097        0.00008494839889
C           -1.09096890232465        1.62701932367625       -0.00028081954784
C           -2.42043959356320        1.29217540681669       -0.00068029706146
H           -3.13413905303916        2.10669016629531       -0.00091652378426
H           -0.88693143574575        2.69267662940065       -0.00023309687003
H            1.31055392671364        2.55913856735176        0.00018989517689
H            4.28159597342974        2.07584037423785        0.00100528973701
H            5.58992465416652       -0.26909448213779        0.00185775597475
H            1.23651435282930       -2.45116254928287        0.00089613304770
H           -2.89192537819962       -2.11943936081885       -0.00064922818915
