28
 energy: -47.476128924582 gnorm: 0.000829545160 xtb: 6.6.1 (8d0f1dd)
N           -5.87651248446507       -0.08348978255405        0.01374402024621
C           -4.73095748900009        0.00662559311689        0.00462599862026
C           -3.32388401500710        0.11354164224304       -0.00367838850034
C           -2.82449637216106        1.43886366258861       -0.00811204673173
C           -1.53817449103251        1.88326726754733       -0.00898725497532
C           -0.29214737194456        1.19714200222992       -0.00548284210108
C            0.84760276128146        1.98066622209820        0.00012125873045
C            2.12777972052775        1.42522345032518        0.00331194093980
C            2.25451971160139       -0.03080001140267       -0.00239011509321
C            3.66307706926692       -0.32486360248588        0.00161699333816
C            4.20774516339942       -1.60618255854843       -0.00183431888262
N            4.63233836015231       -2.67595849891496       -0.00662524265402
C            4.33239112258524        0.88870342779340        0.00982261310710
C            3.40490282159585        1.95483519945362        0.01079281685287
H            3.66381329418054        2.99727905518797        0.01663756777180
H            5.40239782421883        1.00170582960730        0.01495745920924
C            1.15442369768084       -0.82397371676508       -0.00878150807348
C           -0.16264322714158       -0.26591395583860       -0.00856474847045
C           -1.18268427928024       -1.18724252216759       -0.01017054548233
C           -2.59716409996343       -1.08036942085299       -0.00569113938257
N           -3.28004770368528       -2.25406522513736       -0.01139430367904
H           -2.79310979292273       -3.13078456512131        0.01823411399518
H           -4.28507175921992       -2.25701015583335        0.01444755056503
H           -0.84891618355581       -2.22097782144114       -0.01378386692815
H            1.26269790254415       -1.90018699499501       -0.01274955734347
H            0.74650350214250        3.05688020742927        0.00253270399260
H           -1.43091660176858        2.96187174745942       -0.01114576927777
H           -3.59748599042915        2.19789552337833       -0.00911933049317
