24
 energy: -44.565659905344 gnorm: 0.000394206347 xtb: 6.6.1 (8d0f1dd)
N           -4.20485283209714       -1.46025790684212        0.75329423162840
C           -3.44928724756810       -0.63456578947506        0.49283254465463
C           -2.57545571870626        0.41018963588311        0.18526170093532
C           -3.00239680736474        1.77940377090184       -0.04746564882908
C           -1.92649895729525        2.55840256021364       -0.32082196229355
C           -0.75216799122463        1.73369105620108       -0.26660336757081
C           -1.20300711814107        0.36480008625060        0.04675824664548
C           -0.27449465896724       -0.70060781774983        0.03439382639710
C           -0.69059546340546       -2.04298742304825        0.15674328978297
N           -1.00094515996441       -3.14152466158250        0.26370593998955
C            1.07105625223656       -0.41258791103059       -0.16181890381093
N            1.91845027409614       -1.32258261486995       -0.62146770920569
C            3.20821548148539       -1.36099563183712       -0.64617235894472
C            4.09705217382129       -0.58527300367291        0.14233397027270
C            3.72897028978004        0.60844114260507        0.70822713709201
N            2.67906673846495        1.35049722175481        0.35843027533501
C            1.52013223489517        1.01868068196609       -0.08758725790222
C            0.56499823330092        2.04236338796448       -0.37313638387565
H            0.91520359108430        3.05039494935097       -0.53534060230748
H            4.40307391376122        1.11929557839278        1.38660417155637
H            5.10203220751832       -0.95461431854058        0.29034195129707
H            3.61932893422063       -2.16146152502969       -1.25219037325612
H           -1.92312916018820        3.61117997771095       -0.52739183013887
H           -4.03087531434799        2.08906759558244       -0.00200843515358
