26
 energy: -47.232547296729 gnorm: 0.000837439510 xtb: 6.6.1 (8d0f1dd)
N            4.51940586247298        2.06583672073400        1.21854879859969
C            3.92420681330591        1.16938126738667        0.81184117302689
C            3.22000929739331        0.07112007721350        0.32152510674733
C            1.82624610738198       -0.04095741923603        0.18151409637482
C            1.55519960149099       -1.39866857711335       -0.38488047632129
C            2.79148262533899       -2.01523984784239       -0.57316151596459
C            3.78332274261586       -1.13387366541260       -0.15664371386264
H            4.84143576522071       -1.33149955687594       -0.17880057218164
H            2.95153725772379       -3.00118500887388       -0.96722772956507
C            0.24346939473718       -1.81138509640794       -0.46322728150667
C           -0.77796558111472       -0.93592397770103       -0.06451374055098
N           -1.99389661136874       -1.42548370371161        0.04928652180108
C           -3.12683695731599       -0.80105545100125        0.30838402357499
N           -4.10666008398746       -1.55597387227340        0.85156011753119
H           -5.04309467195349       -1.19319377714628        0.85317393516884
H           -3.95541601865055       -2.54552964041515        0.93550918327387
N           -3.48845842776228        0.43456147926687       -0.03980347154523
C           -2.67024707624376        1.44459561791803       -0.24658449425786
N           -3.24742360511978        2.55841337644217       -0.74613646619151
H           -2.72578137488097        3.40815448042570       -0.85632682134728
H           -4.23741402563981        2.55284300248108       -0.91493188243728
C           -1.28223391676058        1.51762256380063        0.06314894908534
C           -0.39066176276987        0.47808544717126        0.22301036544898
N            0.88130053119611        0.82406271408746        0.44403808712055
H           -0.83586596560556        2.50473053863752        0.06518652156327
H           -0.02406127420512       -2.82423796895407       -0.72725190748491
