29
 energy: -51.192002105125 gnorm: 0.000879635600 xtb: 6.6.1 (8d0f1dd)
N           -4.74581572137895       -1.58013676210721       -0.26941312943819
C           -3.99820418607441       -0.71011284769113       -0.18201222626146
C           -3.14744629100213        0.38841580714989       -0.07431064548112
C           -3.61126881424247        1.76141296580386        0.01068055764010
C           -2.55237564001917        2.60166471648353        0.10913194281665
C           -1.35436083171684        1.80717538277210        0.09159793511966
C           -1.76526253348595        0.40839643130559       -0.02565390155228
C           -0.77321923534873       -0.59146226408160       -0.03960961001343
C           -1.12074939299855       -1.95698639942073       -0.11534726322457
N           -1.39222324625979       -3.06966212451044       -0.18656777768934
C            0.58362724800071       -0.26825984830842        0.03841202949212
N            1.39613981821392       -1.33050110185920        0.08169191115581
C            2.69300963457633       -1.44227137185811        0.10329768328167
N            3.12451750253073       -2.71990298411180        0.26581316824068
H            2.41705284552701       -3.43470471057423        0.25532561462708
H            4.08262478899801       -2.97473150621547        0.11549207135992
C            3.70102584844135       -0.43990123345031       -0.03038536469660
C            3.52416810137531        0.92029062429273       -0.05842965243660
N            4.62550315054741        1.72396813850344       -0.13067276931906
H            4.51585188311498        2.70293997882490       -0.32559497730803
H            5.51879157647633        1.31273658863843       -0.33537654309723
C            2.27547435633203        1.60851041142693        0.04883945697184
C            0.98804689482054        1.14756746413652        0.09339646851044
C           -0.04345091677037        2.14233363380139        0.15425965709729
H            0.25423410707586        3.17963261576566        0.23435858340964
H            2.38242313714914        2.68905374450049        0.07395354334650
H            4.71874424827718       -0.80415495715073       -0.09887259739313
H           -2.57668983172919        3.67204873134279        0.18638362988189
H           -4.65209229172961        2.03152452949137       -0.00508489263961
