26
 energy: -48.033397368733 gnorm: 0.000843453630 xtb: 6.6.1 (8d0f1dd)
N           -6.35252719081621       -0.52523166230661        0.00146838663124
C           -5.22085753710034       -0.33741783640764       -0.00091582826665
C           -3.82530362083614       -0.11473461388236       -0.00010953231636
C           -3.00869699445025       -1.28163210309957        0.00074367621765
N           -1.72668430669515       -1.41417339998712        0.00075446260645
C           -0.73601514496850       -0.50885314957825       -0.00000530680528
C            0.52610883490312       -1.08277953670950        0.00008541398145
C            1.67006042045721       -0.29594334507610       -0.00058139892556
C            1.54497427432016        1.16835079765574       -0.00134568481406
N            2.74817306592101        1.76453349200223       -0.00185677617311
C            3.64811966096058        0.77725097297278       -0.00159331753367
N            4.96044194057209        1.01208822017747       -0.00205249075294
H            5.61646793970929        0.25019315746425       -0.00185070200041
H            5.28519166274070        1.96340166069990       -0.00260602272118
C            3.03932251759823       -0.53752479813701       -0.00098993157256
C            3.74696638546098       -1.73272693990380       -0.00143395095017
N            4.38245937602767       -2.69235390198378        0.00155480124936
C            0.29859835376888        1.75153598362768       -0.00151148800010
C           -0.86717641208117        0.97229226072256       -0.00093956601539
C           -2.07936012426887        1.66429347232293       -0.00135311502988
C           -3.38954074945393        1.20190525555280       -0.00105675250630
H           -4.16419334375577        1.95995005839702       -0.00169310476414
H           -1.98062513601477        2.74408606207779       -0.00211764522585
H            0.22160733003373        2.82874418876697       -0.00217314431097
H            0.59311123913185       -2.15996033540778        0.00067379915010
H           -3.54471157926443       -2.22803262506059        0.00141300174833
