24
 energy: -43.784387856188 gnorm: 0.000833965173 xtb: 6.6.1 (8d0f1dd)
N            4.09087871529387        2.51968863142689        0.75836932602409
C            3.61371321150222        1.51288134369792        0.47261312038288
C            3.01442439641345        0.30283402702382        0.12955841186491
C            1.58024427808133        0.04498438592533        0.17974799503359
C            1.39051399704914       -1.34122040571900       -0.26700536882856
C            2.63205779462676       -1.85454239625568       -0.55594834879978
C            3.61687293627165       -0.84875949936559       -0.31343011757928
H            4.67459390292515       -0.98255308429537       -0.45690464503345
H            2.84846388039711       -2.84826381531711       -0.90093204829597
C            0.10512371121170       -1.90985185721423       -0.22103674514227
C           -0.97371121240577       -1.14145076493576        0.13409743661081
N           -2.13440870706233       -1.74743072197524        0.48669726063288
C           -3.28409069660051       -1.20082658445970        0.67748860258586
N           -3.77532616218121       -0.02720670411276        0.25346937578269
C           -3.02255947569008        0.96567610934760       -0.14113289042520
N           -3.60131384210282        1.96202064590758       -0.82846557473796
H           -3.08275873418263        2.80214928615136       -1.01257010390981
H           -4.58681445288807        1.91281213623454       -1.01607581930603
N           -1.71774157459344        1.20810044846006        0.17996485677494
C           -0.79142323651317        0.32163622196254        0.32245431597701
C            0.54304291970439        0.83196513499523        0.52939920936944
H            0.65694656250892        1.86115351547014        0.83514435920316
H           -4.02833896466094       -1.83431093316922        1.15102070208072
H           -0.03584514090721       -2.96286152718360       -0.40757620496542
