28
 energy: -47.482221277388 gnorm: 0.000495064705 xtb: 6.6.1 (8d0f1dd)
N           -6.41933344783436       -0.45980606602438        0.00147354304313
C           -5.28014021340874       -0.32531856195214        0.00261906342234
C           -3.87434285872550       -0.15648557623687        0.00100741918002
C           -3.11309823119713       -1.32571329198222        0.00042495640147
C           -1.73757792163794       -1.45323191930074       -0.00049145448416
C           -0.70166692710304       -0.51024793084719       -0.00110250154750
C            0.59792502001130       -1.02955360884328       -0.00205653493125
C            1.70643897013409       -0.21002199785594       -0.00297968890048
C            1.53803730609441        1.24686735184454       -0.00285452249225
C            2.79932527540562        1.82643272502780       -0.00452826952905
C            3.75461204874588        0.79357410954877       -0.00578957413871
N            5.09071321932131        0.93759110035784       -0.00415229755684
H            5.68174678584345        0.12446241085932       -0.01580187240417
H            5.50917762224532        1.84998204132991       -0.01787418453600
C            3.08382522715270       -0.46957056946506       -0.00454005521456
C            3.72467636843266       -1.70257781499278       -0.00599991138107
N            4.29534537965177       -2.70339384103504       -0.00947616077252
H            3.02262545548464        2.87652170252942       -0.00488694772706
C            0.25367882738787        1.76954250180411       -0.00168957078817
C           -0.87732666503584        0.95608717187904       -0.00086991692265
C           -2.11684344337101        1.62166696756322        0.00003031184152
C           -3.41552802490107        1.16707314954671        0.00084735821532
H           -4.18982058900215        1.92500759608935        0.00147674580641
H           -2.02545123405002        2.70264877267614        0.00009637956806
H            0.12616021518634        2.84332198213773       -0.00152927886821
H            0.73603442535274       -2.10206187990204       -0.00218092220500
H           -1.38907203247489       -2.48038944454412       -0.00079478832145
H           -3.67860849850845       -2.24986194241215        0.00076574594284
