25
 energy: -48.297496040891 gnorm: 0.000897319410 xtb: 6.6.1 (8d0f1dd)
N           -5.69004303225180       -1.13776491634297        0.25225066419736
C           -4.57433549315363       -0.87872268942804        0.16411796548975
C           -3.20607359404103       -0.54770575219776        0.06251347630081
C           -2.33119260911535       -1.63465781622096       -0.05282961854425
C           -0.96310973286619       -1.66153853450617       -0.12382526210515
C           -0.02035649906274       -0.61966090992846        0.00195262719148
N            1.24793326253802       -1.00821762303153       -0.00930218586190
C            2.21331885292572       -0.13614429362600       -0.10108910618547
C            1.89460886153879        1.32411244026281       -0.08298246095270
N            3.01822424187649        2.03215956711689       -0.01382544114918
C            4.02276151827003        1.16227719359896        0.01807705265079
C            3.60816217736587       -0.18790046324421        0.04153280953292
C            4.41784728140285       -1.32281992394996        0.11207655663217
N            5.09124809089616       -2.25100912187235        0.17513808661195
H            5.03949946823883        1.51228513355141        0.04100798856940
N            0.66155606006286        1.70459900465153        0.06398620558907
C           -0.33537016302160        0.80726747498672        0.04678528988550
C           -1.60464737161472        1.37920488622964       -0.03912643187709
C           -2.89135213916379        0.83686140083363        0.00790405915530
N           -3.92322723765233        1.71014400964469       -0.01933081045215
H           -3.75018374331461        2.69930062420188       -0.02700818023069
H           -4.87274369494023        1.38305999398359        0.03834660210541
H           -1.56383271567311        2.45570906549292       -0.16260172113464
H           -0.50278301719326       -2.62616848725564       -0.29454360932686
H           -2.82340274305137       -2.59934225985016       -0.09991713949000
