29
 energy: -56.797431631554 gnorm: 0.000744159938 xtb: 6.6.1 (8d0f1dd)
N            6.24848993004802        1.23330971929592       -0.00197848995982
C            5.13315669847811        0.97124583589443        0.00095228013706
C            3.75132820302313        0.65166325275369       -0.00026474590373
C            2.86230201093326        1.74210079341662       -0.00039484327062
C            1.49326473386883        1.72203394455511       -0.00032819585291
C            0.54871123016131        0.66789548621396        0.00003778247115
C            0.86284971808138       -0.76663620424695        0.00028859540036
C           -0.18401324884476       -1.70224427299992        0.00063625626945
C           -1.50085244734613       -1.30591267168146        0.00077672553661
N           -2.60519377231733       -2.06801830550324        0.00108740614059
C           -3.63687207531897       -1.22352253244476        0.00113500319876
N           -4.90131561199717       -1.63570486770783        0.00144838791315
H           -5.65609691217404       -0.97050067676185        0.00150539343831
H           -5.09225705765182       -2.62323712385673        0.00165113329241
C           -3.21991126954772        0.17157806623736        0.00091005633831
C           -4.10812251443017        1.24213138236936        0.00140980820425
N           -4.91209863415189        2.06424150245225       -0.00040999465094
C           -1.83583772033545        0.12010192469568        0.00055533237301
C           -0.79866328657142        1.06412006475139        0.00016608478813
C           -1.16752491776533        2.42861651224901       -0.00063990224214
N           -1.50158385374316        3.52634209881774        0.00073814185866
H            0.03714671558410       -2.75821312860851        0.00083694741041
C            2.17216379420490       -1.30137806588762        0.00019577938229
C            2.29084492150533       -2.72032155102287        0.00053012878935
N            2.47590537377908       -3.85158479840568        0.00057385686993
C            3.43247718728116       -0.69647371253979       -0.00003881087738
H            4.27287704959767       -1.38275599362501        0.00010531519315
H            1.03427824183390        2.70488331965299       -0.00045418904361
H            3.32905729631411        2.71919150413720       -0.00046861650371
