29
 energy: -55.994782204776 gnorm: 0.000905499556 xtb: 6.6.1 (8d0f1dd)
N           -5.69242583268285       -1.05226456446895        0.00482157724339
C           -4.55797747552708       -0.87355866665245        0.00350681607781
C           -3.16297672189421       -0.64632207328872        0.00196518918322
C           -2.37560169134545       -1.80835565223698        0.00291502613461
C           -1.01460311367975       -1.95731888509717        0.00190110349878
C            0.02550126738216       -1.00445810006858       -0.00041097004777
C           -0.17043241674970        0.44682027568990       -0.00232594886849
N            0.85255891133861        1.31837045257973       -0.00454097809206
C            2.08062678984341        0.87617473801166       -0.00503596119232
C            2.41647350503789       -0.57633271948502       -0.00325224339217
C            3.78154410514451       -0.63288432257966       -0.00445264011404
C            4.20510945736916        0.74197076529088       -0.00680804515967
N            5.46717169920726        1.16802271203536       -0.00855083516551
H            6.23527806061392        0.52080972411361       -0.00827359414662
H            5.63681504534119        2.15944628592207       -0.01011997328765
N            3.18642742825892        1.61705383159780       -0.00714185596145
H            4.42349749998689       -1.49132287244670       -0.00381531803708
C            1.34447752302971       -1.48406142697255       -0.00098968824286
C            1.64100424181659       -2.86224992945624        0.00037076507431
N            1.93737411708100       -3.97212611613863        0.00240019781293
C           -1.39396188936858        1.13064278228286       -0.00218742440095
C           -1.21760052681382        2.54302419362909       -0.00465935169497
N           -1.20373151405944        3.69060131871535       -0.00556366688690
C           -2.74875682264735        0.70074950900880       -0.00033949896892
N           -3.70282614155010        1.65671696834041       -0.00083207393975
H           -3.44626099186666        2.62969134291628       -0.00247513293292
H           -4.67590775292908        1.40145320147544        0.00040768483416
H           -0.66560373155208       -2.98427528149978        0.00303350874913
H           -2.94843927258510       -2.72841664621787        0.00470598732376
