26
 energy: -48.008209489480 gnorm: 0.000704222258 xtb: 6.6.1 (8d0f1dd)
N            5.17144815598832        1.13995851234073       -0.37201984783562
C            4.03918162002226        0.98620202890811       -0.25024829173268
C            2.64807360389045        0.79158490352756       -0.11020558064628
C            1.89322299274691        1.97326380524247        0.01432730615002
C            0.54338836464916        2.14313090956280        0.12244725329931
C           -0.51410247612355        1.21083150429520        0.00196430563496
N           -1.72332026710970        1.71958291111940        0.11418112070171
C           -2.79749944220447        0.95620002696509        0.14129885297321
C           -2.62759452156469       -0.52983652358903       -0.02207178546641
N           -1.43569333560574       -1.02396571801332       -0.16130717464588
C           -0.34848353702081       -0.24722065238939       -0.08927144225372
C            0.85402191234583       -0.96027561770405        0.05624812590078
C            0.65947756675741       -2.34785925173264        0.27270999056009
N            0.56172319775694       -3.47842287409418        0.44699934084953
C            2.21075778459771       -0.54568554140694       -0.01334033498832
N            3.15286684630758       -1.51549347159875        0.01916330497066
H            4.12804757544987       -1.27431201232857       -0.03220058667640
H            2.88709461906561       -2.48419223463179        0.07001018885380
C           -3.91119275495273       -1.07541027500099       -0.17099017480201
C           -4.81067269739944       -0.03060735613739       -0.08573154955140
C           -4.14333686005461        1.21390098245800        0.05315193270281
H           -4.60971061085431        2.17959033104594        0.06714595647123
H           -5.87961751859178       -0.13144421117680       -0.15651114167714
H           -4.13416469291188       -2.11941840227362       -0.26976271983612
H            0.19099353610725        3.14639768995209        0.32375048574010
H            2.49136094230294        2.87625821995881        0.05025802990460
