34
 energy: -56.980771291019 gnorm: 0.000900004512 xtb: 6.6.1 (8d0f1dd)
N            5.06860194782406        1.96682287371947        1.03187913537364
C            4.22579414148708        1.24679463159342        0.72703359771413
C            3.18824906431393        0.37937989539396        0.33545331983937
C            3.41158918997545       -0.97194849685611        0.44239091734144
N            2.68987001157899       -1.94291130316897       -0.11581131238623
C            1.44562604616242       -1.90285384611195       -0.47561311571595
N            1.04514663771961       -2.89656150029111       -1.29859292787336
H            0.09330091094468       -2.94444700042366       -1.61451947264413
H            1.73657152674027       -3.52539787272404       -1.66855478561928
C            0.40754396946729       -0.94558559706131       -0.07703453873698
C           -0.87468641179831       -1.37020139531628        0.20247185041879
N           -1.18319107005397       -2.72031599065422        0.41511319509068
H           -0.37804725462851       -3.28308734890916        0.65686122207469
H           -1.92100084934928       -2.82992384422445        1.09691171981251
C           -1.92076795574354       -0.41815239177769        0.25937857203501
C           -1.63787462712251        0.96295208919923       -0.06811687590244
C           -2.88702675735951        1.67470037255031       -0.00299629217681
N           -3.03277642985421        3.04430115214731       -0.23603728191535
H           -2.37091780461859        3.60634317411371        0.28512964538620
H           -3.98021890902616        3.35617274977902       -0.06236363540637
C           -3.87305672446337        0.76662371263231        0.28611124994582
C           -3.29714803499563       -0.52796942391941        0.42610520637334
N           -4.03531671657068       -1.66968087150084        0.71474223753285
H           -3.71855486563000       -2.50271967143791        0.23907811327868
H           -5.03012850914488       -1.52907083954984        0.60547600772363
H           -4.92252476287161        0.98054194082948        0.39254831076491
C           -0.38637084423028        1.38125978676621       -0.44053428345677
N           -0.17064136810026        2.65999189817684       -0.88403509348456
H            0.65811072676681        2.82563138464280       -1.43131568918280
H           -0.99903351941908        3.13890531535571       -1.20271794719094
C            0.72810644083983        0.46804724193482       -0.23891838485515
C            1.97901155905403        1.01027708712545       -0.10833839479259
H            2.06810156697668        2.08603942750848       -0.19451315444041
H            4.33109333062894       -1.31974400384252        0.90043401257455
