26
 energy: -48.037506220982 gnorm: 0.000525459613 xtb: 6.6.1 (8d0f1dd)
N            3.35134554352745        3.10091514351399        0.00036519051680
C            3.01620243284783        2.00418670739878        0.00038342313144
C            2.69624549175287        0.61847213427762        0.00049842079381
C            3.85091946100323       -0.17705871415503        0.00010981798398
C            3.96799459679010       -1.54815421853812        0.00007065993417
C            2.93917201947179       -2.49295567692876        0.00041547984669
C            1.58470145138906       -2.27920528582196        0.00088090379956
C            0.80797065428877       -1.09632195328192        0.00115428219476
N           -0.48902083559260       -1.36329027058835        0.00160370975207
C           -1.35640903501343       -0.36255189843843        0.00191879094472
C           -0.94568395280495        1.05226586734262        0.00174926440429
N           -2.01096352825053        1.86998716305475        0.00212947247083
C           -3.08162407602933        1.07274588120956        0.00249669481119
N           -4.32461907431710        1.55450955115589        0.00290466328527
H           -4.46080123307218        2.55045577420363        0.00297798305283
H           -5.11316344866927        0.93088485216376        0.00316276802634
C           -2.74496627585735       -0.33781692222061        0.00235942200749
C           -3.67794935221891       -1.36675119350069        0.00254542154268
N           -4.50203185655254       -2.17000541512091        0.00332522215185
C            0.39714363475688        1.33779349288866        0.00125628120054
C            1.32717953210708        0.28020520880250        0.00096045626490
H            0.73519330057447        2.36340004759526        0.00110267158600
H            0.95358752558159       -3.15989035527098        0.00108004618119
H            3.25500059462677       -3.52832680198008        0.00028882513266
H            4.97669199948971       -1.94017641370162       -0.00028181399140
H            4.77944402867055        0.38296844274039       -0.00019791982469
