28
 energy: -56.278355890203 gnorm: 0.000248256102 xtb: 6.6.1 (8d0f1dd)
N           -6.22956430723069       -0.18412536851256        0.00889615207954
C           -5.08704949269333       -0.30134657864226        0.00633279256831
C           -3.68077515886148       -0.41496691246882        0.00215105419953
C           -3.14935258159257       -1.68836819512417        0.00496066958817
C           -1.81314723479492       -2.07833875950364        0.00123150201692
C           -0.64823550187447       -1.31587838853384       -0.00230540484055
N            0.46875985393419       -2.06087894033696       -0.00438172633714
C            1.63247283207058       -1.46840477926895       -0.00200665180654
N            2.81702361854975       -2.08709612605272       -0.00380566700976
C            3.73876568238909       -1.12152451779826        0.00020748255831
N            5.04047825027360       -1.38464754499652        0.00017345389403
H            5.34287350654486       -2.34422796244351       -0.00284635839390
H            5.71306614289779       -0.63594415293566        0.00299836080955
C            3.16594413961486        0.21624736524759        0.00424999081281
C            3.92477818768379        1.38183005070310        0.00763173407495
N            4.62188861281526        2.29677060558337        0.01042076361010
C            1.79995933223589        0.00967337316907        0.00334142393124
C            0.64496080865979        0.79392851860816        0.00323217164818
C            0.70739827631990        2.20485561090191        0.00515147546849
N            0.76480534856504        3.35005483072064        0.00754853429160
C           -0.61095518417949        0.16068184735347       -0.00078784675002
N           -1.64294609841120        0.99963732773877       -0.00302916413918
C           -2.93654490455072        0.82727919856116       -0.00483066446059
N           -3.64140678372967        1.97422293231286       -0.01226814315850
H           -3.12312367517445        2.83676374469854       -0.01486983385039
H           -4.64671634008846        1.98386145497986       -0.01162926974313
H           -1.62024551775097       -3.14340068132455        0.00258081003250
H           -3.87332314673270       -2.49516946643842        0.00997906479713
