30
 energy: -50.102801382057 gnorm: 0.000384014579 xtb: 6.6.1 (8d0f1dd)
N            5.09920959718238        1.49632520106837        0.46651627953122
C            4.15142448388605        0.88029512636229        0.24562703857807
C            2.98553370162013        0.13856158468963       -0.01523685550956
C            3.20490415285432       -1.13075786337759       -0.62128056951311
C            2.32828346791064       -2.15848868868440       -0.73451040888124
C            0.98294827764491       -2.20679691874895       -0.29549867686730
C            0.12552341102916       -1.19705056781940        0.05915676828224
C           -1.25339471313013       -1.57651789505705        0.33178565177270
N           -1.56482233517407       -2.85884305538632        0.65922397701891
H           -0.87008487391763       -3.45794344391593        1.06821683764730
H           -2.52582211668975       -3.05364650185094        0.87972074714734
C           -2.24189296543501       -0.63776797286638        0.14139342931787
C           -1.91343060362770        0.73465673470608       -0.17959999184120
C           -3.14293123631806        1.37584510870562       -0.32039388442478
N           -3.39662766850453        2.70531375478818       -0.55432505222962
H           -4.35351922641179        2.89073877610446       -0.81256007571380
H           -2.70910563023858        3.19808607208396       -1.10197274226012
N           -4.17869212416147        0.51121357452860       -0.10918312593025
C           -3.66393487990071       -0.66791237899008        0.17135441746022
H           -4.30799720868008       -1.50758482452533        0.36345030720503
C           -0.57946819567261        1.15017708903651       -0.13696857826004
C            0.43399121681908        0.23588933058212        0.03799503188135
C            1.76934655733902        0.73794808568237        0.31276429102446
N            1.82322293552744        1.94391855402153        0.91882758990540
H            2.71652216801465        2.35376203038514        1.13798643761852
H            0.98372200743256        2.39083843557687        1.24066268360872
H           -0.35998588559157        2.20252702228560       -0.25508421908350
H            0.55753458599807       -3.20141878315353       -0.34003158966223
H            2.70144407528033       -3.07498050953007       -1.17242728633068
H            4.22069205790792       -1.29691080470487       -0.95963597699333
