23
 energy: -44.058230198076 gnorm: 0.000614922417 xtb: 6.6.1 (8d0f1dd)
N            4.20176002005745        2.32538445724376        1.02479482004476
C            3.66941751021733        1.38024352068472        0.64315228431781
C            2.99545268635379        0.25258968293776        0.17622042566246
C            1.56228874241515        0.05605852116146        0.26601242889452
C            1.29350127843933       -1.29096252469367       -0.30007141599088
C            2.48540963411320       -1.79418206986135       -0.75251048521387
C            3.51963560273357       -0.86026242942226       -0.44078859090575
H            4.56178420060091       -1.01080677342574       -0.66153102175234
H            2.63104314585736       -2.73304192772595       -1.24980366813526
N            0.07243600953772       -1.83876894025812       -0.27070494342486
C           -0.92575424796313       -1.09884289062509        0.10569013641425
N           -2.03621638311108       -1.67250469472276        0.58440818603367
C           -3.19273960592821       -1.13166070758117        0.80368745192626
N           -3.73981222296086       -0.02609504281020        0.30739198398555
C           -3.02125751535911        0.95175748524962       -0.20457031522220
N           -3.64289139665275        1.86588988281117       -0.96187879156511
H           -3.16685528022650        2.71438961921385       -1.21237459566859
H           -4.63383149196954        1.77862140968931       -1.10389813556600
N           -1.74150672511134        1.23387360790412        0.12436935304237
C           -0.78176295603645        0.38938653500328        0.28714767444657
C            0.53743725872581        0.88435133682207        0.56769572804543
H            0.66444782818671        1.92547182487973        0.82882319381198
H           -3.87069313051919       -1.72729556967411        1.40792517012005
