26
 energy: -48.036073951332 gnorm: 0.000422139335 xtb: 6.6.1 (8d0f1dd)
N           -1.64187205728096       -3.49707847570589       -0.00005334598685
C           -1.86040752290284       -2.37230636366718       -0.00036419341705
C           -2.24748077988810       -1.00232561443560       -0.00084056580684
C           -3.61585799128416       -0.79214034877427       -0.00138097617058
C           -4.30986799992477        0.41237633526060       -0.00196386696626
C           -3.78517885296712        1.69245812836791       -0.00218713868467
C           -2.45786114617936        2.09380998475650       -0.00186655940871
C           -1.26348583444141        1.36749700983123       -0.00119770024026
C           -0.06888735519180        2.11624392104917       -0.00104909664368
C            1.13780853946390        1.46410111591928       -0.00039330292864
C            1.13345215000539       -0.01099396529089        0.00016292890934
N            0.01571046567473       -0.72376802397791        0.00000111111802
C           -1.14675538943914       -0.09690129461485       -0.00066530989668
C            2.47060544300705       -0.37796693511220        0.00080920328478
C            3.08894577668516       -1.62309581455339        0.00154326745634
N            3.68210762990886       -2.60876147921115        0.00223873883317
C            3.19209027821219        0.87926495391118        0.00058462708806
N            4.52106853192942        0.98767837271564        0.00102939019273
H            4.93691428633033        1.90263895662863        0.00081978078936
H            5.09719725922748        0.16368709472315        0.00157374768139
N            2.39121246826460        1.94778834679475       -0.00012769119721
H           -0.10898592648322        3.19590814624804       -0.00146041002015
H           -2.31204857933854        3.16907755222200       -0.00219552312880
H           -4.50998234634247        2.49708625480047       -0.00271339491972
H           -5.38927741217073        0.33509375595797       -0.00232016984228
H           -4.21914006737453       -1.69255050604319       -0.00133063709479
