25
 energy: -48.293971828341 gnorm: 0.000859458132 xtb: 6.6.1 (8d0f1dd)
N           -0.63415438316506       -3.61932384835215       -0.90151197803755
C           -0.85544625619701       -2.55204672234142       -0.54545480271586
C           -1.26933419059644       -1.22801622884097       -0.24822212999108
C           -2.64980818886299       -1.06959774482995       -0.31883376461993
N           -3.40358274714738       -0.04408907510650        0.01362818880838
C           -3.02393495651781        1.20145529593109        0.18506230832739
N           -3.96596905554937        2.03224462193721        0.67094554635982
H           -3.79145472777662        3.01057475700289        0.80934832128590
H           -4.85830855218504        1.64415077875029        0.92383594833253
C           -1.77517467067127        1.77660237332905       -0.21090830952818
C           -0.54033548910205        1.18547065140647       -0.30638164471953
C            0.55376033284576        2.06768659935121       -0.56719286552452
C            1.82246772504814        1.64764764880008       -0.33353739679654
C            2.08989441445254        0.28790729464801        0.17941556928751
N            3.37972230849369        0.17946838985059        0.41230510700542
C            3.87641910664427        1.39583451773981        0.04131045926602
N            3.02091968818353        2.28978769036619       -0.39438481872931
H            4.92942525259750        1.59825797451669        0.11053672467743
C            1.03266561532208       -0.63456882608812        0.29089592597819
C            1.33165063596416       -1.92322379026739        0.78738187257619
N            1.61313890086400       -2.91456004927383        1.29019196761159
C           -0.26383915531032       -0.23726290228494       -0.03376032759219
H            0.35178884780584        3.08842280208492       -0.85453022762222
H           -1.80510106244698        2.84671484020622       -0.38346306187140
H           -3.22475913751142       -1.94778362304972       -0.59623796443040
