30
 energy: -60.500809072971 gnorm: 0.000926339213 xtb: 6.6.1 (8d0f1dd)
N           -5.55460297604955       -1.38793229935106       -0.00097901225357
C           -4.45010526214458       -1.07198833529359       -0.00022280630737
C           -3.08839779273741       -0.69040707464305       -0.00006408925121
C           -2.16246265219122       -1.75898467243928        0.00035228869113
C           -0.76067671504178       -1.66192601052450        0.00033528362002
C            0.11250219711841       -0.58938530474095        0.00052860806926
C           -0.27011889942298        0.82852575453210        0.00094848109102
N            0.62543497689104        1.82133360986571        0.00181279204060
C            1.90331353628424        1.54482355106850        0.00181275923312
N            2.90744280553201        2.41978972857389        0.00268175151536
C            4.02734864225492        1.69685871695454        0.00222673589928
C            3.81605164166574        0.29808504589218        0.00108364832034
C            4.79749358376962       -0.69511864441296       -0.00014416805009
N            5.61260659609382       -1.50405825862061        0.00102396767681
C            2.42445762028668        0.14671324342525        0.00085135776701
C            1.50946667443594       -0.88920937499883        0.00050521071822
C            1.95282989980257       -2.23050455382137        0.00133338869540
N            2.29787312180212       -3.32501744862231       -0.00193851765322
H            4.98483292002876        2.18768585869631        0.00255673075694
C           -1.57985989125581        1.32861940309958        0.00048164719377
C           -1.61057552405015        2.75234730389087        0.00201436492399
N           -1.75274851855042        3.89085566578389       -0.00049594443157
C           -2.85365413560784        0.70246196390470       -0.00018979622596
N           -3.93100966892856        1.51470908950912       -0.00080784456708
H           -3.80879944760133        2.51399527857657       -0.00072965286999
H           -4.86246936112645        1.13458848650281       -0.00113181307534
H           -0.26894587633772       -2.63058956814729        0.00011063103594
N           -2.66131090518215       -3.01642240815364        0.00061905231985
H           -3.65344758739541       -3.18118020388934        0.00045877003255
H           -2.04147902924239       -3.80701366711722        0.00072329648476
