25
 energy: -49.081317204936 gnorm: 0.000784909285 xtb: 6.6.1 (8d0f1dd)
N           -3.61479251055786       -2.75476916392001        0.73374609881686
C           -3.17697227871682       -1.72936825651064        0.47087538860937
C           -2.68914194158925       -0.43611194855820        0.14196902241394
C           -3.60527586083601        0.60183286541492        0.27841087838813
C           -3.44752787348203        1.93435557364730       -0.08876649957722
C           -2.26595179917326        2.53204848547894       -0.51395516831040
N           -1.04734417703827        2.08295896951751       -0.33743089512842
C           -0.56610781711988        0.89539862412305       -0.13661588370314
C            0.84750564175059        0.81449978600811        0.11498152948079
C            1.56898511686092        2.02248514459154        0.27649789349090
N            2.14095778311312        3.00313364821260        0.42625146062205
C            1.45558981862567       -0.41470383925727        0.07398149339872
C            0.62913811072604       -1.60316688019418       -0.27518317089711
N           -0.69389800329970       -1.54527658884611       -0.33199191843601
C           -1.30490925506276       -0.39634763404697       -0.19037171252321
C            1.48805079411867       -2.66608523376044       -0.46334010044260
C            2.79975822371673       -2.21843921216241       -0.20521242933501
C            2.80284074057979       -0.86216213822847        0.12312840089315
C            3.92024192603755       -0.08789088586115        0.45253821129561
N            4.84502897973218        0.53495393055956        0.72615287452939
H            3.68175460385408       -2.83166209625725       -0.25834880085376
H            1.20731552583474       -3.66179887019571       -0.74444196524517
H           -2.30010798040795        3.54354455864475       -0.90096489040043
H           -4.32040335159550        2.56909765647751       -0.02161083720995
H           -4.58523684246470        0.30933256492444        0.63560847893542
