24
 energy: -43.781889636444 gnorm: 0.000641238675 xtb: 6.6.1 (8d0f1dd)
N           -4.66301476682829       -1.84392901706229       -0.74418482332121
C           -3.97228957774903       -0.96316359516439       -0.47756180699098
C           -3.10597206058212        0.08025352692793       -0.15765331002687
C           -1.66990376854652       -0.03093192674777       -0.11424427095299
C           -1.15717876990255        1.30044417993879        0.27971959352111
N            0.15157967730220        1.57748101590274        0.32718168273098
C            1.01160546207846        0.62741351511191        0.08581840765676
N            2.27893386457364        1.01920461101094       -0.07182868033914
C            3.37998564566264        0.33756943566000       -0.10200434534897
N            4.46743249872527        0.91927690282746       -0.64300675720484
H            4.39842682837762        1.87989154486086       -0.93006535201110
H            5.36855580599459        0.50830058888872       -0.47400675723164
N            3.63065345029198       -0.87189912660365        0.48568246377020
C            2.76071187635619       -1.80810963830958        0.60071605649915
C            1.41661017949036       -1.86255404329577        0.13078923664539
C            0.59102492902397       -0.79701348650787       -0.11464966901486
C           -0.80070829091623       -1.04258841347809       -0.34026740971308
H           -1.12597349454800       -2.03653148727533       -0.62093898195348
H            0.96541847010275       -2.84930022002941        0.11395482660962
H            3.12236793528865       -2.69320259918539        1.11807913058129
C           -2.24037526804928        2.12657305082688        0.45405692628002
C           -3.42126698779048        1.37863080858079        0.19336845304921
H           -4.42071302453605        1.77249063989231        0.25728586827394
H           -2.21213570591977        3.16185217373011        0.73220865239144
