28
 energy: -56.263249050914 gnorm: 0.000808662196 xtb: 6.6.1 (8d0f1dd)
N           -5.74731717766835       -0.34791488154620       -0.45885659997139
C           -4.61253801840145       -0.24154697112328       -0.30817257223654
C           -3.22540244024457       -0.10501778112038       -0.11560804279615
C           -2.75623192807836        1.19871953225118        0.26909726412600
N           -1.55270253027221        1.67669089318413        0.10635419262668
C           -0.38417912622708        1.12179586051527       -0.14033440148191
N            0.55793203391415        1.96017778799414       -0.52856629341601
C            1.81755520593533        1.60126354025556       -0.46538455872465
N            2.87219197846403        2.29832372592455       -0.85284753311380
C            3.95440839259370        1.56971656356046       -0.53178374984025
C            3.65564759484344        0.31784701407605        0.02390500548422
C            4.55933281381361       -0.65989807320216        0.44510501693917
N            5.30652652495048       -1.46140534418813        0.78895692229744
C            2.24717480728614        0.28076589345027        0.09780125461783
C            1.28103066830000       -0.67942029820015        0.29051977505767
C            1.62291353590606       -2.02225129601822        0.56018154003468
N            1.87161342088765       -3.11951017608194        0.78672026623657
C           -0.09738989371549       -0.31911023318671        0.09659749839624
C           -1.04076689827081       -1.31186086720117        0.05850188816669
C           -2.43244409560625       -1.25242485976071       -0.23248068754502
N           -3.02200020933915       -2.42297278723293       -0.55170320734540
H           -2.48158552615941       -3.26800671516257       -0.60846659226765
H           -4.01079304438668       -2.46617220238043       -0.73312024132906
H           -0.66662055250601       -2.32097005609806        0.20756327653520
H            4.93809261576203        1.96256346487148       -0.71912833374886
N           -3.65389389247064        2.06859833373683        0.76820160299391
H           -3.34617900574507        3.01389384252686        0.92434987090848
H           -4.63471656336391        1.84917168845763        0.80513525049637
