27
 energy: -46.946123322839 gnorm: 0.000933958852 xtb: 6.6.1 (8d0f1dd)
N            4.69676685995886        2.18547144238685        0.47331398414240
C            4.09422651770342        1.21992842260858        0.29706721707282
C            3.33325616095438        0.07460827450036        0.08583539893041
C            1.89190157330404        0.03654328332587        0.08018776077733
C            1.50804303093719       -1.36369320747695       -0.18217999502269
N            0.23372437811651       -1.76182829400695       -0.19784907903546
C           -0.72493383428983       -0.88600575666965       -0.02578774273141
N           -1.93652680808450       -1.43920121371848        0.06471290399477
C           -3.13346820442690       -0.93108459013301        0.10957175588322
N           -4.11273247011319       -1.85422468079913        0.29981554582733
H           -5.06673958078202       -1.59061809322678        0.45802002359201
H           -3.81951424245607       -2.79981018130356        0.46916253442136
C           -3.56835892394493        0.41179106879285       -0.09798481723249
C           -2.78700313408893        1.53901574145568       -0.14521368338268
N           -3.38009845164498        2.74477676274118       -0.36459294809336
H           -2.84682583797468        3.59235170271271       -0.31148283137077
H           -4.37938480078424        2.81337185600232       -0.42570000998464
C           -1.37059996776866        1.57759025031328        0.04213507374839
C           -0.44917416850479        0.57381818449862        0.11614736739202
C            0.92673191385843        0.96686112363809        0.24063425715127
H            1.16046812961140        2.00922781743677        0.42306894627065
H           -0.96544967516649        2.58550884157363        0.09021211428447
H           -4.63659907820935        0.54739473772430       -0.21601058536517
C            2.66797092926436       -2.09119578185090       -0.32770465942546
C            3.76976656915058       -1.21317346006299       -0.16591331711163
H            4.80289067398761       -1.50934660759221       -0.22793928096559
H            2.73783538959291       -3.14312761967033       -0.52537203746698
