26
 energy: -52.022147996532 gnorm: 0.000231693764 xtb: 6.6.1 (8d0f1dd)
N           -0.57125369608047       -4.30670993818596       -0.50350834745731
C           -0.87118031324537       -3.21700793083413       -0.30871930847284
C           -1.29240547385108       -1.88699948585300       -0.06803485100990
C           -2.66261059727578       -1.69238266719016       -0.02269358014971
N           -3.38906763806406       -0.61128026091014        0.17436361708842
C           -2.98037430987504        0.64440222108940        0.15955924202162
N           -3.96111948199302        1.53892311470048        0.38109298203998
H           -3.79154776624164        2.52877590869509        0.32672187371038
H           -4.89372188053716        1.18747156932454        0.51482311629658
C           -1.66923008622360        1.16153925245828       -0.10874035664345
C           -1.61979696795057        2.53012280097766       -0.44887071860196
N           -1.66352581262550        3.64614020730042       -0.71834762103149
C           -0.42882172155678        0.51505339105668        0.00157286904193
N            0.63786624584740        1.31746254288450       -0.10609161432721
C            1.84003714515194        0.82224719640559       -0.14018419731115
C            2.03722633048130       -0.65645124892967        0.02797364488003
C            3.38158191322328       -0.81518958262875        0.24602120529318
C            3.93658381230238        0.48919703855462        0.07511330442734
N            5.23036345432692        0.81075993339172        0.13551289746363
H            5.49431493809912        1.77057757558762       -0.00494924083477
H            5.93003362274554        0.11224275159289        0.30981582560290
N            3.00443077393471        1.44689346994154       -0.10914842433736
H            3.91543913254482       -1.71499720531106        0.47373541738233
N            0.97911721759109       -1.43707283216550        0.10588527383474
C           -0.23393768084823       -0.93586421672637        0.08821391152859
H           -3.27241131997918       -2.58400093932902       -0.14430595073401
