24
 energy: -48.575894927256 gnorm: 0.000695028446 xtb: 6.6.1 (8d0f1dd)
N           -5.43385976352488       -0.36657644551070       -0.47462306986336
C           -4.29793507050649       -0.43892751127072       -0.32122152687161
C           -2.90748289545481       -0.49538748915098       -0.09936616145511
C           -2.27724973485928       -1.72957517591492       -0.21546297069941
C           -0.95122187403105       -2.05234969938763        0.00844781639950
C            0.15793765018143       -1.21618690074784        0.21360231800131
N            1.31258685686223       -1.81804154491288        0.44120382889705
C            2.44019122064031       -1.19407000814504        0.24760361816944
N            3.68797134501225       -1.56521641754793        0.50654467090685
C            4.42739522523367       -0.52722665059075        0.10107152398071
N            3.77624125018548        0.55784284796632       -0.32816452019495
C            2.49371632480303        0.21110773170461       -0.27540833120869
C            1.30613923287268        0.91767871719203       -0.31566470578221
C            1.26947051213991        2.31598937160617       -0.51425884233517
N            1.22234336067137        3.44737565568880       -0.68904930352497
C            0.08951056130925        0.24291242189570       -0.01407073714669
N           -0.98316616094670        0.99291753520954        0.03381531341414
C           -2.25748226647767        0.74875858287986        0.21218446454354
N           -3.00341645565440        1.79911612477493        0.58844373458808
H           -2.54989286546768        2.69200203412539        0.69215297165759
H           -4.00791140149162        1.74354322518671        0.60738146007902
H            5.50076199593200       -0.55570102526180        0.13897714678562
H           -0.69011319593303       -3.10107896941045       -0.05366006942127
H           -2.93098255809921       -2.55665771467956       -0.46646627451810
