32
 energy: -53.547463647939 gnorm: 0.000722665132 xtb: 6.6.1 (8d0f1dd)
N           -5.24878067217891       -1.25828252605880       -0.48761616425622
C           -4.23600447437963       -0.72630897535038       -0.35465948348738
C           -2.99590333655352       -0.09060144589300       -0.18420235648587
C           -2.91141905763215        1.23793960416912       -0.57948497744969
N           -2.00674432131776        2.10992669575099       -0.23196629901924
C           -0.80079948503173        1.90834133103804        0.27265940901224
N           -0.30498411457290        2.99466765455145        0.90860440047804
H           -0.92833152536842        3.76658717628116        1.07041130504073
H            0.57597085324290        2.94440574948169        1.38883780055349
C            0.03254951534183        0.76104914575627        0.09099621922871
C            1.42403871295506        0.92991580228841       -0.04546568251819
N            2.00053461079995        2.18391478785283       -0.22512778910145
H            2.91098335860799        2.11301585061481       -0.65960241609558
H            1.41000841657753        2.86863293537789       -0.67536648186987
C            2.27141919361866       -0.17965197135092       -0.03300256192634
C            1.70524573187650       -1.51531632363299        0.05412909966161
C            2.76579074700740       -2.43190544317392       -0.06122358034653
C            3.93953866208836       -1.70914071550320       -0.18086959024222
C            3.65703214868298       -0.33005033662078       -0.16431546160764
N            4.60619579782166        0.70153706021484       -0.28767798366081
H            5.54583981926086        0.32558718247964       -0.33083368891969
H            4.54402796371553        1.38636060644959        0.45786898808070
H            4.92788497783048       -2.12579741796955       -0.27974737189337
H            2.67736433297196       -3.50250946761017       -0.03972616824231
C            0.34785821344008       -1.67909842183752        0.19375046660983
C           -0.53526379576910       -0.58906610613358        0.20081567062032
C           -1.91646641016041       -0.87772058969316        0.34059560011071
N           -2.29477879265827       -2.04619841461786        0.90842104675678
H           -3.25418774260746       -2.34225239826780        0.83176977165180
H           -1.61000595339480       -2.70725271154051        1.22874842004270
H           -0.03691869218299       -2.69007723924293        0.19255477161810
H           -3.74808110043176        1.65804741219056       -1.12886025634340
