30
 energy: -55.726019888285 gnorm: 0.000585226203 xtb: 6.6.1 (8d0f1dd)
N           -2.26486729823256       -3.86555445023972       -0.04687592634156
C           -2.29177955522656       -2.71847053426247       -0.03360102951036
C           -2.42219819509867       -1.30681677294487       -0.01954466977619
C           -3.75753169187637       -0.90779244666658       -0.02589872731632
N           -4.32830024728534        0.27697019283439       -0.00111104094696
C           -3.71463792775061        1.44873701123572        0.01748350812560
N           -4.56412309306441        2.50042609138388        0.04916956410844
H           -5.54974882655471        2.30670055738813        0.07469591716331
H           -4.23950341807326        3.44883129687043        0.08677785758124
C           -2.32729477404951        1.74604701134472       -0.00435072315616
C           -1.21049401652213        0.93333584796687       -0.01444548013257
C            0.03874293336506        1.60100509349285       -0.02650473090586
C            1.21691167168292        0.90832084318594       -0.01616317412239
C            1.20141819260771       -0.55188870157421        0.00631592492693
C            2.52381486636905       -0.99018337774434        0.01854171676973
C            3.00423528010381       -2.29641505896772        0.04332878189178
N            3.45134297038633       -3.35650015690853        0.06227515286011
C            3.37619785388695        0.17312699458835        0.00276282894322
N            4.71376504146734        0.12930727768639        0.00850213725675
H            5.24932749751025        0.98048914798435       -0.00343320990599
H            5.19038278079971       -0.75639909541001        0.02446929822698
C            2.57260340479126        1.32711943429403       -0.01857962061058
C            3.03820875498783        2.63864852311082       -0.03786069632300
N            3.43725890453918        3.71812420041869       -0.05455006395334
C           -0.01502979591599       -1.22613030865114        0.00834555509292
C           -1.21909287822736       -0.54024506987331       -0.00543651460014
H           -0.01494566104754       -2.30667357326734        0.01851187734358
H            0.05183584940472        2.68162218033516       -0.03913101639058
H           -2.11456025218140        2.81001095507427       -0.00800719877402
H           -4.48665265529563       -1.71382690198484       -0.04748505712462
