27
 energy: -51.759704208292 gnorm: 0.000738995455 xtb: 6.6.1 (8d0f1dd)
N           -1.36392302767710       -3.93396068119482        0.00464320342488
C           -1.58564873430377       -2.80803871399059        0.00393673238161
C           -1.92107860725251       -1.43112828581568        0.00123825205630
C           -3.29618693517455       -1.21701598264189        0.00234244547174
N           -4.02774904883604       -0.12269202083452        0.00089434616673
C           -3.58477227870114        1.12505777431474       -0.00188213271332
N           -4.56929657521658        2.04756530027491       -0.00274051350685
H           -5.52081588457187        1.72385714313634       -0.00167399189178
H           -4.37077114012229        3.03113389390873       -0.00531273803386
C           -2.25289235872579        1.61030739284520       -0.00381192305200
C           -1.03643091944187        0.95612222630914       -0.00381014863341
N            0.00095588137472        1.82167169736686       -0.00618980116041
C            1.21516397033347        1.35404511032336       -0.00673206957024
C            1.52304060642202       -0.09828890585989       -0.00483379298930
C            2.90526701325661       -0.16786404752055       -0.00660136628785
C            3.76206201516089       -1.26037278082311       -0.00724251884734
N            4.51783893088127       -2.12876263304573       -0.00276627324923
C            3.34481255982094        1.22064174002277       -0.00888687727182
N            4.61937032247264        1.60491652315516       -0.01097438182555
H            5.35856973193724        0.92296844161373       -0.01081201817998
H            4.83120812129222        2.58775590126467       -0.01267367643433
N            2.33800427924908        2.08943880453027       -0.00899655409819
C            0.46141696318222       -0.99239581600201       -0.00224736434609
C           -0.83672326219452       -0.50162313968477       -0.00160496395455
H            0.64362048511125       -2.05827736164571       -0.00074661759184
H           -2.14845032578081        2.68862306040538       -0.00577353253509
H           -3.90808658599570       -2.11596456981210        0.00480286657178
