28
 energy: -56.270129908342 gnorm: 0.000507385385 xtb: 6.6.1 (8d0f1dd)
N           -6.03157937237270       -0.68769905711053       -0.00220710808507
C           -4.88382727086165       -0.66192805204980       -0.00173027339710
C           -3.46918201441347       -0.62656890110040       -0.00037011715688
C           -2.85178121302102       -1.87137173339195        0.00100768533946
C           -1.51052771186050       -2.19878904420106        0.00231388666924
C           -0.37322194164466       -1.38704151572868        0.00253870699881
N            0.77534706417114       -2.08749278738068        0.00391882862433
C            1.90028428683967       -1.42172174890220        0.00469202064010
C            1.91226612999394        0.06772401070483        0.00401506206321
C            3.25119678165461        0.41649937482859        0.00487612659723
C            3.88129470932574        1.65632404510112        0.00481587631426
N            4.47328308476663        2.64238698950119        0.00433362825376
C            3.95371021368940       -0.85127370348427        0.00609217461037
N            5.27571818278892       -0.98396326512848        0.00725238319590
H            5.67184533379541       -1.90868161631870        0.00803180488239
H            5.86916439816641       -0.17131284270324        0.00734815771281
N            3.13804154515959       -1.91430233479207        0.00585653262225
N            0.78427042233849        0.75519118592400        0.00250534306071
C           -0.36099336288943        0.07541679197578        0.00169894168751
C           -1.49415932750934        0.92875732832313        0.00029060642536
C           -1.13953779682223        2.30416299359101        0.00009740568634
N           -0.94722619755718        3.43565627245332       -0.00105909550078
C           -2.87716921468871        0.67090633249918       -0.00071305728432
N           -3.71683287432245        1.72794789336412       -0.00207783628910
H           -4.71321980042401        1.58893351116072       -0.00280601467906
H           -3.34960456490956        2.66515089756023       -0.00236865853182
H           -1.26851362977880       -3.25382225940613        0.00334784960992
H           -3.53735432631355       -2.71123033518882        0.00101676913040
