25
 energy: -48.297431847257 gnorm: 0.000789499334 xtb: 6.6.1 (8d0f1dd)
N           -4.34790129605461       -1.93079962399487       -0.37122161932850
C           -3.71308226865400       -0.98986957522462       -0.19137073918516
C           -2.94594570687974        0.15490492810234        0.03441387800115
C           -3.39435793883430        1.39654830483091        0.44834521569547
C           -2.30864708735298        2.30398873950669        0.57820968369476
C           -1.14916341230355        1.64082969367250        0.25831655955458
N            0.09476068390430        2.11030808576699        0.12709338919357
C            1.05315790143189        1.29574846708170       -0.21838551566429
N            2.21031476523284        1.85284570588230       -0.59211152805025
C            3.37926733114666        1.33395187439963       -0.71010781868085
N            3.88686127673338        0.23890988833680       -0.13906895455389
C            3.19680731175550       -0.80358388771569        0.23517129692282
N            3.84935368610186       -1.74213707050990        0.93970833641816
H            4.81382477138852       -1.57974318921805        1.17448191472801
H            3.41621234532079       -2.61299688727353        1.18998909658185
C            1.81776716863865       -1.09276360617529       -0.10667569421366
C            0.83768690496964       -0.17845378178984       -0.33125305182036
C           -0.53812474900947       -0.63247244417847       -0.44256895300338
C           -0.78644500351387       -1.96951174212269       -0.82490373501982
N           -0.92380414409131       -3.06453034067681       -1.13719313995292
C           -1.51839948965383        0.24670376195239       -0.09278097932919
H            1.53183789188165       -2.13921055920846       -0.05925225880167
H            4.11330642634808        1.93578526221344       -1.23688109820616
H           -2.39052352520253        3.33292372513012        0.86762001463765
H           -4.42396289830293        1.64286382521144        0.63948002688231
