28
 energy: -51.464333833533 gnorm: 0.000787606110 xtb: 6.6.1 (8d0f1dd)
N           -4.82597854760309       -1.49085448904853       -0.01484342241611
C           -4.04804757658049       -0.64367930346749       -0.01040586184657
C           -3.13938696690657        0.41345010032663       -0.00438873254913
C           -3.51407192863183        1.81202549806227       -0.00160655206355
C           -2.40657802424698        2.60413350932961        0.00510171344625
C           -1.26329859187233        1.74983945393363        0.00693876547135
N           -0.01087474178749        2.08122889880689        0.01241490558917
C            0.93585435858671        1.09767332761020        0.01082097826130
C            2.21162615923601        1.59850823568406        0.00830254204714
C            3.47830490391983        0.94694929677421        0.00090824283221
N            4.55807440926295        1.77070988475995        0.00466187112588
H            5.48740959894904        1.39491804980340       -0.03787510716488
H            4.43913833933655        2.76581433332756       -0.03885608890223
C            3.68277993645747       -0.41530577171433        0.00253209822803
C            2.70321629835275       -1.44598951010692        0.01153645609174
N            1.39534250959447       -1.37159503331430        0.00908869915685
C            0.56688664601463       -0.32985272507271        0.00785209146424
C           -0.79813804417632       -0.66553147539815        0.00171782254393
C           -1.15543528442585       -2.03122777643697       -0.00274444062913
N           -1.43220989629092       -3.14448335527357       -0.00699604104465
C           -1.75850478804909        0.35397461940029        0.00033353949132
N            3.15702071539266       -2.72201010101352        0.02958548375289
H            2.46836211196897       -3.45404580162249        0.01039964598590
H            4.13305052862111       -2.94801548303133       -0.01425933315290
H            4.71218957243387       -0.75276028702572       -0.00147896893705
H            2.24613580124462        2.68230049025037        0.00984163770881
H           -2.37028892171472        3.67549686722566        0.00818675327652
H           -4.53765163878519        2.14340015153080       -0.00469383666713
