23
 energy: -44.054366808900 gnorm: 0.000993636354 xtb: 6.6.1 (8d0f1dd)
N           -5.30035075015036       -0.39815093791014        0.00692935729577
C           -4.14953248091403       -0.39212700505188        0.01281655083156
C           -2.74639627442107       -0.35614176914996       -0.00971766874811
C           -2.06419399323511       -1.56886710186258        0.12222589145509
C           -0.71463623130335       -1.81294381044239        0.06837309649536
C            0.36098145644770       -0.91788442570327       -0.12833039347949
N            1.56102015727796       -1.42283011143570       -0.27031708448224
C            2.65799573619780       -0.78325833140476       -0.02389948699651
C            4.02116818730788       -0.97186079480449       -0.28078582367261
C            4.62030493585086        0.23243869732557        0.03875300985887
N            3.73158183034756        1.20858878797058        0.33445299703489
C            2.53813176588553        0.67658595038254        0.34629320568879
N            1.35370016474555        1.21811224232668        0.32141830571197
C            0.24188849744844        0.54967330249056        0.10157832570080
N           -0.87796268393437        1.23664119622043        0.16189876287907
C           -2.13502830969473        0.94062962611549       -0.05978153921856
N           -2.93273771729812        2.00773832782211       -0.24883976580538
H           -2.51825661852520        2.92229384901852       -0.18929810954332
H           -3.93239750519821        1.90565418985438       -0.29740567058232
H            5.66928028057677        0.46490131442662        0.03833386619918
H            4.49229801499026       -1.89033505957296       -0.56809823782605
H           -0.39801206539411       -2.83189643040071        0.25070852507994
H           -2.69680017711246       -2.43575636591306        0.27343240021976
