27
 energy: -52.555257103850 gnorm: 0.000533746638 xtb: 6.6.1 (8d0f1dd)
N           -3.27558932472285       -3.25479834461479       -0.00351665027986
C           -3.00247447422055       -2.14226126085455       -0.00171303745549
C           -2.78705177740279       -0.73479058073053       -0.00138052423873
C           -3.96104335476568        0.02520858550579       -0.00086372601590
C           -4.09496749204830        1.39522587132419       -0.00004810323745
C           -3.07889128500247        2.35413202935270        0.00053381603686
C           -1.71614332096077        2.17474370604148        0.00059491331989
C           -0.92185613130546        1.00977362488648        0.00006898014833
C           -1.42605644764020       -0.36362152748950       -0.00107043673055
N           -0.62249230171932       -1.43235133274795       -0.00172983883384
C            0.67453297272339       -1.26747708458547       -0.00156821252469
N            1.58744824644141       -2.23734671688388       -0.00219778529267
C            2.77784521469987       -1.62780104351931       -0.00173859610315
N            3.91843733250212       -2.30962996494855       -0.00217722103302
H            4.80275688514553       -1.82975575978669       -0.00176408053831
H            3.88140892148218       -3.31490707829925       -0.00277386632919
C            2.67433256112428       -0.18075993506058       -0.00069605744448
C            3.76841457617438        0.67891817268671       -0.00032677055691
N            4.71941373964498        1.32545706581470        0.00008030886516
C            1.31316006632975        0.07101671547067       -0.00047523101004
C            0.47786452714889        1.18976119536070        0.00054636943955
C            1.05893536613645        2.47771528327024        0.00187181186324
N            1.55648946499814        3.51175480239437        0.00481098363751
H           -1.13479083787448        3.09149661978441        0.00117148516147
H           -3.41150713610402        3.38423026275019        0.00110899566796
H           -5.10719612968293        1.77781785012837        0.00019876480547
H           -4.87637866600149       -0.55478574194996       -0.00118302852118
