25
 energy: -43.497058910677 gnorm: 0.000906461090 xtb: 6.6.1 (8d0f1dd)
N           -4.17061562777061       -2.56710229554423        0.11435600969797
C           -3.67681966645332       -1.52828443674037        0.07159236779899
C           -3.04407319635927       -0.28870071187108        0.01727783826724
C           -1.62223685550757       -0.09462286396817        0.02853710444251
C           -1.39488628919350        1.36341325525812       -0.04733082934852
N           -0.17362956119085        1.89261885716925       -0.03308010128879
C            0.87992933264693        1.11712272964772        0.03064954021754
N            2.02549991642219        1.81151050894553        0.08703843314071
C            3.25541594174366        1.41816365357377        0.10538824260173
C            3.84775637025714        0.14512715412486        0.01530993819229
C            3.20833488415044       -1.08115756886259       -0.03449183543735
N            3.95942389405937       -2.20875949554323       -0.11732338346787
H            4.96067305736312       -2.15007805800275       -0.15991252131712
H            3.52913565065171       -3.11503798918695       -0.14955212923397
C            1.79876655323280       -1.27249274685265        0.02252966273794
C            0.76631750588847       -0.37450001128391        0.06166776188363
C           -0.55520634620296       -0.92474017632935        0.08991979139039
H           -0.67569261165053       -2.00041380897341        0.14577721512918
H            1.50061483381590       -2.31832308069424        0.01821032923810
H            4.93022516005541        0.12777592170932       -0.00991972233725
H            3.95888196203810        2.24453769228891        0.18382255711736
C           -2.63023480026673        1.97412523651143       -0.10012890310934
C           -3.62433349379925        0.96865293986501       -0.06166585887745
H           -4.68462608219285        1.15194097150463       -0.08801269759674
H           -2.81386089603780        3.02913755015435       -0.15801828734124
