27
 energy: -52.543988476936 gnorm: 0.000921411683 xtb: 6.6.1 (8d0f1dd)
N            3.10702469380848        3.22283904329817        0.57577751951280
C            2.95580869726780        2.10086642827572        0.39511733533746
C            2.82553033462914        0.70455578389097        0.16974435300774
C            4.01394665110956       -0.01106477391407        0.40960957738720
C            4.29387495751775       -1.31576777767009        0.08053683312111
C            3.39047303094324       -2.20726450150485       -0.52855302185608
N            2.09921264646544       -2.16262003614357       -0.51095664433680
C            1.22892768851673       -1.22733560223103       -0.18292765791173
N           -0.00205070746660       -1.67123238619729        0.00867744431849
C           -0.99544725800725       -0.80629858065361        0.04073975086110
C           -0.81171322996826        0.63850393882542       -0.21872720617682
C           -2.08236030934882        1.23046369764465       -0.23633575229358
C           -2.39987544791939        2.56882534933739       -0.46219901546234
N           -2.70044379225091        3.66367861563054       -0.64577092507391
C           -3.03854666546575        0.21097021258522        0.03433187641661
N           -4.35749676590500        0.38283276066904        0.11264095123309
H           -4.95719826513808       -0.40135540515529        0.31166328815864
H           -4.76101915754539        1.29493928449900       -0.02559727990495
C           -2.36112225842102       -1.03806743216761        0.21096406880276
C           -3.01936905418522       -2.23606473241432        0.48990878943509
N           -3.63139494081468       -3.18048527998409        0.72396131165599
C            0.47436695300990        1.12881503588478       -0.29472015838809
C            1.54208264464862        0.23140204122216       -0.15466831754121
H            0.65949675859472        2.18998590685762       -0.39242614019739
H            3.79751235607631       -3.09717361495683       -0.99810714209536
H            5.29785863892872       -1.67575759669220        0.25707336797258
H            4.82495896402300        0.57837021306727        0.82091286401423
