28
 energy: -56.267329092548 gnorm: 0.000410593350 xtb: 6.6.1 (8d0f1dd)
N            4.60505297611181        2.20996873163717        1.19512903656103
C            3.83919108006653        1.43715488104418        0.82174617876420
C            2.98921650044932        0.42745081666525        0.37731296747778
C            1.63694758268708        0.47987016738392        0.07883469614358
N            0.82893747041013        1.52408271943742        0.01542057517550
C           -0.42280753628676        1.32985097070811       -0.34821408056720
N           -1.08180529508397        2.37562137576575       -0.80271536671313
C           -2.35278080047817        2.54465725532390       -0.99138759488562
N           -3.35453645040905        1.98244827795483       -0.34498701431005
C           -3.31994804228380        0.80885241647272        0.24961547365383
N           -4.34484966918198        0.53603349360986        1.07323226268659
H           -5.06286293769159        1.23311917256003        1.17522561312166
H           -4.48371201708122       -0.38629262998786        1.45077945349550
C           -2.34969087051553       -0.23600194750451       -0.00790693110269
C           -2.80207514185504       -1.53170286151761        0.32800731848818
N           -3.26421303073959       -2.52290982541320        0.68000987706675
C           -1.02165256036094       -0.04463900839714       -0.38082126828246
C           -0.12718191908670       -1.12740788653850       -0.56193935334830
C           -0.55747779335154       -2.42100687336993       -0.91872992256115
N           -0.83079745343259       -3.47387228367184       -1.28577916624561
C            1.22921499883722       -0.89221076843494       -0.34097762582741
C            2.35029778082362       -1.70330148970066       -0.32565109263237
C            3.43313219612166       -0.92663877231216        0.11936472677697
N            4.69201827213321       -1.32932233946833        0.29096587206335
H            4.96125496865497       -2.27698731115420        0.08851575922202
H            5.38831090541680       -0.67536659570042        0.61058497496774
H            2.38897746887383       -2.74293192027706       -0.58880569736441
H           -2.63098914764858        3.35766351998352       -1.65332923162432
