27
 energy: -52.550778014091 gnorm: 0.000406190334 xtb: 6.6.1 (8d0f1dd)
N           -3.08247103687555       -3.67479059337695       -0.00107492615886
C           -2.81967956916574       -2.55882868361963       -0.00084322908690
C           -2.58832011706049       -1.15521246447459       -0.00053886893828
C           -3.78903856954781       -0.43336387633697       -0.00009052774260
C           -3.99402965384507        0.92938072749914        0.00028627951517
C           -3.03304533048954        1.93685296970926        0.00030363607241
C           -1.65648983343246        1.81222530370472       -0.00008144336023
C           -0.94904517095640        3.04852730496192        0.00027097491784
N           -0.46304607599537        4.08584003818661        0.00018039040148
C           -0.80004384174165        0.67028852008662       -0.00058704935402
N            0.47295013001778        1.01712662246833       -0.00087889812094
C            1.40451924712508        0.07360549578211       -0.00137696505485
C            1.07613551213028       -1.36335692534684       -0.00157919214873
N            2.18575340805745       -2.11752144857115       -0.00205847268634
C            3.20890522202012       -1.25971729343170       -0.00219853792034
N            4.47603487448947       -1.66505431291816       -0.00266141279588
H            4.67282954650027       -2.65138060811665       -0.00291084162015
H            5.22581408282197       -0.99435794626979       -0.00280278915270
C            2.78853338363002        0.13224477743814       -0.00179323281525
C            3.66989481121766        1.20757849090255       -0.00188138584526
N            4.46618198127272        2.03735849484116       -0.00180216846577
C           -0.24828414975660       -1.72940229697440       -0.00127369643382
C           -1.24155795743035       -0.73241447805796       -0.00076815647095
H           -0.52224005151290       -2.77389011304255       -0.00150288536052
H           -3.40565254592075        2.95425615036149        0.00068837629596
H           -5.02493328488146        1.25735355681774        0.00061755926841
H           -4.68129479167075       -1.04924711832251       -0.00008578283894
