22
 energy: -40.318115552208 gnorm: 0.000356515710 xtb: 6.6.1 (8d0f1dd)
N           -4.16592438407489       -2.16836961891915        0.00494742996338
C           -3.49623427232037       -1.23453151157471        0.00301306884063
C           -2.69152961984237       -0.09330672753594        0.00108587992233
C           -1.29628827654285       -0.05249257338618        0.00063440114916
N           -0.38314250432787       -0.99594895234555        0.00162315009885
C            0.90202869066809       -0.63979468854440        0.00062104970762
C            1.79022073105833       -1.72569856684418        0.00227738173610
C            3.17305203753137       -1.74480759892201        0.00192660729739
C            4.03355703774809       -0.65456410504502       -0.00023665818012
C            3.68531361703079        0.69919098838544       -0.00237207301153
N            2.52092514483697        1.29111142057287       -0.00284063468762
C            1.29519020760308        0.79616905068181       -0.00170678928765
N            0.35532777370804        1.74625280640512       -0.00275738365161
C           -0.90462010860070        1.39220631285353       -0.00167204695082
C           -2.08489630356214        2.14171698914016       -0.00242235225178
C           -3.14842351110429        1.25365610413535       -0.00070440354159
H           -4.18953631659321        1.52616412411590       -0.00080017898413
H           -2.14634877901109        3.21225003906003       -0.00400724862878
H            4.50882966713952        1.40859140015424       -0.00386643240949
H            5.09417385372596       -0.86921940681858       -0.00019247346875
H            3.63454273467910       -2.72390325416285        0.00349828159611
H            1.28090049295030       -2.68225526280613        0.00418623994251
