21
 energy: -40.599629955802 gnorm: 0.000553261030 xtb: 6.6.1 (8d0f1dd)
N           -5.49358035753776       -0.03989314603497       -0.28156317884895
C           -4.35019525029773       -0.01443969981060       -0.18021207006420
C           -2.94452475682658        0.02196591724592       -0.09038330211609
C           -2.27462491244682       -1.21156118189390       -0.09275066132420
N           -1.02329031212004       -1.48246447776961        0.11405860418633
C            0.06348438354479       -0.73072250262524        0.06058597355234
N            1.21444555206453       -1.33691267977682        0.23750063050154
C            2.37090238058326       -0.74238102095173        0.25548039100890
C            3.69479461069804       -1.15797965904023        0.13671331838665
C            4.42042036806339       -0.00804224670917       -0.16456419353731
N            3.64534465567751        1.06823838602003       -0.37415880977882
C            2.40937863861144        0.72402489021173       -0.10508656168540
N            1.27090860037110        1.32032681953350       -0.28147568426357
C            0.11018745046156        0.74677852323032       -0.13612488412566
C           -1.01176264540614        1.58420374844892        0.13131603760024
C           -2.34034637544456        1.27860791291733        0.14161778698018
H           -3.02447480557134        2.09560421870524        0.33845032784171
H           -0.73282714740683        2.59870019491282        0.38549621510687
H            5.48561119772925        0.08097454054987       -0.27405423133266
H            4.07125839025867       -2.14338122961677        0.32433841747820
H           -2.89453010521426       -2.10127660124567       -0.17138561606347
