25
 energy: -48.298047275463 gnorm: 0.000869645573 xtb: 6.6.1 (8d0f1dd)
N            4.19034688913941        2.49644303315516        0.58864349499297
C            3.74032162438617        1.46917818644425        0.33569209001322
C            3.16873965523260        0.23261395781832        0.03731116140917
C            1.74968786019707       -0.06509275102886        0.13343034327701
C            1.58814147437042       -1.46279421018002       -0.29588948051506
N            0.41588045418447       -2.10546891973385       -0.19952627375255
C           -0.64005976737942       -1.45484098225023        0.19264676484994
N           -1.71027838121430       -2.19037334729090        0.53996653109093
C           -2.93694023581003       -1.84555030882989        0.66248546354365
N           -3.58462910436051       -0.80467826615063        0.12406097097734
C           -3.05557201852799        0.33802701585012       -0.19048135570835
N           -3.80967814430127        1.19178059378277       -0.89984915984698
H           -3.51901565123404        2.13957387979048       -1.07107929781986
H           -4.73870264470893        0.90059503574589       -1.15410867838265
C           -1.72475751512973        0.81387432212503        0.21516880067893
C           -1.58772336309712        2.21951644399790        0.24767773105155
N           -1.55502210621801        3.36724342357893        0.28053928233219
C           -0.61415819837444        0.02052440025499        0.39938642586383
C            0.67445055828093        0.64270487333898        0.54138103716778
H            0.74521454310569        1.66260496661393        0.89594254245889
H           -3.58866265528630       -2.56073765602638        1.15429163318407
C            2.83249151003143       -1.94955391061231       -0.61218374552614
C            3.78892573607280       -0.90615049268767       -0.41745944774065
H            4.84473519870884       -1.00678587260207       -0.59592026345261
H            3.06237037623223       -2.94692144740389       -0.93247179954662
