28
 energy: -46.672008360592 gnorm: 0.000436275972 xtb: 6.6.1 (8d0f1dd)
N            5.07746933429462        1.81122964074126        0.45776498375238
C            4.13411561140697        1.16685670399635        0.33827347866106
C            2.97681785182301        0.37736642611785        0.17943082051485
C            3.06924985313386       -0.96174074869056        0.52033282807123
N            2.23860496049616       -1.92954541190441        0.17975462716327
C            1.00502498608164       -1.85627608993812       -0.23644332490564
N            0.54707951872541       -2.96356432617268       -0.85042721397143
H            1.19207053468733       -3.71542494706571       -1.02518606337645
H           -0.37630031303546       -2.99218918745356       -1.24302644344694
C            0.05278391584047       -0.76980349990555       -0.04367631963557
C           -1.27867829113536       -1.06155810310595        0.13647417003573
C           -2.24473350977269       -0.05028311470773        0.11745077130061
C           -1.82960831302562        1.30624910036195       -0.22502079524960
C           -3.01215305556366        2.11048449887201       -0.25894638657748
C           -4.07335079735285        1.30784957879368        0.04541153190814
C           -3.62159736532428       -0.02886071992092        0.29001258318903
N           -4.45360658016133       -1.09355341002398        0.56105644606129
H           -5.36211451394491       -0.85122422562926        0.92445796592777
H           -4.02422698972903       -1.88011408221012        1.02205329509739
H           -5.10437051312482        1.61023347465781        0.10606183784985
H           -3.04088395682609        3.15981079155268       -0.48408678475116
C           -0.51828464673310        1.59734679426279       -0.42172465104421
C            0.49338541847401        0.60552410942691       -0.24021511799720
C            1.80058838238240        1.05017904495702       -0.24280290354151
H            1.94335746689143        2.10205952769669       -0.46441245234617
H           -0.20618799655066        2.60840706926598       -0.64553689832172
H           -1.58440810749437       -2.08584461273076        0.30961776844870
H            3.97008029892591       -1.31094172069524        1.01416253465210
