25
 energy: -43.498977917981 gnorm: 0.000909639535 xtb: 6.6.1 (8d0f1dd)
N            5.30729745088273        0.65967864096874       -0.01851484008487
C            4.16618467190690        0.53208573392586       -0.00899530701317
C            2.76256098044335        0.35923727469494       -0.00016655257599
C            2.01587886904214        1.54399932273799        0.00771178787186
C            0.65504469853223        1.72107191690734        0.00901110064662
C           -0.41167086341126        0.80219183370249       -0.00026999411814
N           -1.59423406305956        1.39180062880378       -0.00810513004648
C           -2.69134471600327        0.65506153897297       -0.00476018458778
N           -3.93473963821297        1.08839984134268       -0.02380581355606
C           -4.71303456246282       -0.02827317844973       -0.01128616720627
C           -4.00700938378819       -1.21467370813421        0.00604114368865
C           -2.65250651211774       -0.83975094879611        0.01307257089707
C           -1.43384324513195       -1.45338998728448        0.00651582043090
C           -0.25172567009608       -0.66990630683848        0.00219511659953
C            0.94392542413587       -1.36422946920313        0.00846722940263
C            2.29338426217205       -0.97059077740649        0.00160421268974
N            3.21528789809643       -1.96942664389605        0.00814592411298
H            2.92680984962577       -2.92918279837349       -0.02352212248478
H            4.19728378600947       -1.75715181765377       -0.01987330278033
H            0.82303336208938       -2.44514100354638        0.02061349824275
H           -1.34789172710503       -2.53386484601619        0.00018770405763
H           -4.40856990414626       -2.20899732659162        0.01682918949810
H           -5.78325648598121        0.08778679507242       -0.01831754072816
H            0.30271866812654        2.74472938746188        0.01524356139809
H            2.61350929505347        2.44798095129909        0.01069311164549
