32
 energy: -63.958331059090 gnorm: 0.000514951187 xtb: 6.6.1 (8d0f1dd)
N            4.64197343862254        2.29264805969245        1.16003668279690
C            3.95224765014725        1.44416795916253        0.80288597124870
C            3.20437903610303        0.35402485723059        0.36522883721147
C            1.82447603834716        0.23682218683258        0.20129349231596
N            0.88132755770256        1.14075673936949        0.31793460262567
C           -0.38744682538061        0.80170645738555        0.07832324724491
C           -1.23024895368461        1.90241584897092       -0.10346747963092
C           -0.61046364207639        3.17218736169872       -0.07895257378405
N           -0.20339286064783        4.24585304344501       -0.08800716692756
C           -2.63003393494736        1.90497880312528       -0.40635166643876
N           -3.49907101815637        0.97276954658551       -0.09139874832746
C           -3.29675540461719       -0.26340728495502        0.32790310709751
N           -4.38281158690073       -0.83955052455523        0.87863409627806
H           -4.38775616273907       -1.81532507956917        1.12243962357493
H           -5.23666472679283       -0.31014799260108        0.90274794323651
C           -2.11789032122669       -1.05374540741236        0.15336053200219
C           -2.33499240830196       -2.43202468226440        0.36641716035065
N           -2.62782766713120       -3.50798676586349        0.64819802752472
C           -0.80721775037727       -0.60514443738719       -0.08993989391462
C            0.21138348283105       -1.53296407972104       -0.39093185244469
C           -0.04505004010745       -2.84426259819006       -0.84113035698998
N           -0.13818595411114       -3.88880633217345       -1.30948460092491
C            1.55296151964871       -1.14635279940327       -0.27078549593207
C            2.75531384812284       -1.79850079514508       -0.41547679249625
C            3.77953397845303       -0.90014658942124       -0.02259105540593
N            5.08736227401847       -1.15968969204296       -0.00390002125128
H            5.43776612891749       -2.05706872494838       -0.29216990704207
H            5.73401175338283       -0.44898624952218        0.29807458903659
H            2.90492410115117       -2.80850021127464       -0.74616381082768
N           -3.14707325733712        3.00222426749121       -0.98980184819167
H           -2.57772350109052        3.81765125128202       -1.14105316584429
H           -4.14339016882124        3.05494153317871       -1.11236060477100
