32
 energy: -54.347746361068 gnorm: 0.000952985083 xtb: 6.6.1 (8d0f1dd)
N           -5.42937438608970       -1.71803071863170        0.24364769739122
C           -4.56322564440154       -0.96460435110729        0.15238222134254
C           -3.49592209995051       -0.05529597066135        0.03141096360339
C           -3.87121693915802        1.24182673457840       -0.33660103824887
C           -3.09496010806785        2.37361345998228       -0.34355412983116
C           -1.73509731280193        2.46741843911093       -0.05256044062329
C           -0.74885738619531        1.49813932264228        0.08920900937874
C            0.55854170901095        2.00868039299687        0.22341410378021
C            1.66053391704872        1.19443955579577        0.18127520528237
C            1.48976514080588       -0.23688321976273       -0.02705263267305
C            2.76083725351409       -0.80433188678915       -0.09274368949360
N            3.10007718732021       -2.14231449260714       -0.29034621104304
H            4.10216941316197       -2.28730903644145       -0.25859068878281
H            2.62233347576533       -2.79032296033339        0.32360738409742
C            3.70835513213329        0.25762378351073        0.05565356455217
C            5.08990862497577        0.05170441904421        0.05564058960224
N            6.21768879350207       -0.17482692866090        0.06349024446514
C            3.03988225228160        1.46783033427029        0.21675311934929
H            3.49813859133471        2.42912851564613        0.34913962076829
C            0.20091720864418       -0.77787979404088       -0.14174984352274
N            0.10816865867073       -2.13525952993039       -0.44573567429078
H            0.95636852361259       -2.48083024347203       -0.87445066352768
H           -0.71410726559393       -2.40181686239272       -0.96956321169220
C           -0.93570876994126        0.03736365693755        0.03722266953931
C           -2.19854705453621       -0.57962682402945        0.29291240895393
N           -2.18990688946382       -1.81905049682896        0.82332939359256
H           -3.06026326211590       -2.27633361795678        1.04146210254250
H           -1.32029495054320       -2.25737693969236        1.07933468415645
H            0.69155814887826        3.07866280951147        0.29645619686263
H           -1.36688052409045        3.48495938455609        0.00861058905521
H           -3.59929067786983        3.30465616667224       -0.56329326470567
H           -4.92421752844214        1.36431079008310       -0.56169716178099
