23
 energy: -40.047140348948 gnorm: 0.000563507462 xtb: 6.6.1 (8d0f1dd)
N           -5.52878324268665        0.00018116241920       -0.00235448577774
C           -4.38257285523859        0.00024882581644       -0.00159605342519
C           -2.96327561421234        0.00016451698049       -0.00091446453530
C           -2.35777373896457       -1.26017319336382        0.00017924816986
C           -1.01101701105459       -1.56025322362138        0.00109400609879
C            0.12298825050329       -0.73891833331707        0.00123425551807
N            1.26928335655864       -1.43016466037270        0.00228756097810
C            2.39733476471012       -0.75272900770867        0.00249705519427
C            2.39740549007716        0.75254111873367        0.00158355927786
N            1.26942173889497        1.43008277402550        0.00054724379322
C            0.12305856556102        0.73894349650474        0.00033270164349
C           -1.01086289221921        1.56038741304399       -0.00081544958602
C           -2.35765007515947        1.26043846114901       -0.00136623632807
H           -3.03748275974497        2.10392442648278       -0.00225377218731
H           -0.75334273899177        2.61333498254182       -0.00133634699219
C            3.72389256761308        1.15765185072925        0.00209489330481
C            4.51171490599033       -0.00018999310630        0.00324152258297
C            3.72378105559172       -1.15796162618600        0.00349856289010
H            4.07943046596501       -2.16993592261325        0.00431729527487
H            5.58845146898370       -0.00024136434521        0.00385440827699
H            4.07963410130423        2.16959406144118        0.00168719197614
H           -0.75359782851335       -2.61322552853968        0.00186078408275
H           -3.03768988116781       -2.10359255119402        0.00032750026956
