24
 energy: -43.773067389895 gnorm: 0.000974609572 xtb: 6.6.1 (8d0f1dd)
N            4.07165557397912        2.60724915785381       -0.04708766003533
C            3.57510015140788        1.57046957296664       -0.03369604441620
C            2.97212332461484        0.31256850006033       -0.01186323852292
C            1.57338159909526        0.05633946982284       -0.03840904352696
C            1.41072017481824       -1.42916827653828       -0.03805488052531
N            0.20062703239101       -1.96449487909358        0.01909434617287
C           -0.85027681916810       -1.15767408396120        0.04369026571642
C           -2.10060834508126       -1.80625391046417       -0.02453827373747
C           -3.37645051900093       -1.28538402137236        0.00002644869305
N           -3.82639971828810       -0.04198078155527        0.04361362559579
C           -3.11052003868110        1.06772344407343        0.01783129245586
N           -3.85311394256112        2.19588846321518        0.00835956361416
H           -4.85291376313615        2.10251792391493        0.04364408295989
H           -3.43276415576891        3.10680463910145        0.01808234325382
C           -1.69858621290136        1.23576818300333       -0.00876614791518
C           -0.68704872014066        0.30536697133168        0.05751300242132
N            0.55695346228423        0.85525604788240        0.05690966439076
H           -1.34627356644068        2.25764294114700       -0.09368088240095
H           -4.19012059855503       -2.00468020057697       -0.02435327941411
H           -2.01546926396816       -2.88190029764780       -0.11245526949151
C            2.67272667748288       -1.98185686754012        0.01854123684409
C            3.60877840125459       -0.92844815080616        0.00565418475054
H            4.67698712437058       -1.05898631772317        0.02848680433111
H            2.90858122529298       -3.02720994739388        0.06571940498630
