27
 energy: -51.744956542580 gnorm: 0.000542573854 xtb: 6.6.1 (8d0f1dd)
N           -5.56073809620593       -1.04656759539347        0.02229898354840
C           -4.41885689894043       -0.91973464993840        0.01581079228811
C           -3.01527321534122       -0.75886322153842        0.00850512936925
C           -2.28619895776173       -1.95874008485392        0.00546857394003
C           -0.93573734236904       -2.17054172007971       -0.00149690956383
C            0.14585806246311       -1.26172122738726       -0.00751748605892
N            1.33464061138735       -1.85050877265226       -0.01367121454719
C            2.41229714392699       -1.07031534816007       -0.02005726976944
C            2.27947936361040        0.41866919979112       -0.02026629263697
N            3.47372257323681        1.00117162688093       -0.02676494380538
C            4.36170903714048       -0.01192593173255       -0.03077856718555
N            5.67040934617774        0.24389698576234       -0.03774023607404
H            5.96913259190533        1.20412919071624       -0.03999750277805
H            6.34558438885715       -0.49933596889519       -0.04071524461709
C            3.76012038731925       -1.31224405619600       -0.02665527990134
H            4.27884293426429       -2.24914256815020       -0.02851120912317
N            1.10479789946253        0.99383192624749       -0.01412941790999
C            0.01760096680501        0.19861703578880       -0.00777748762681
C           -1.17057054401685        0.94541330275482       -0.00241813537955
C           -0.93586482718664        2.34740727891987       -0.00464985837765
N           -0.85814618413976        3.49275576618433       -0.00640932148624
C           -2.53945107217748        0.56985060707467        0.00496169231663
N           -3.45440543680690        1.56470180275229        0.00887558820645
H           -4.43694318110127        1.34938773747921        0.01423070390023
H           -3.15793557013094        2.52611056658539        0.00665973316899
H           -0.60319023804820       -3.20085123046606       -0.00287019146097
H           -2.90529777143091       -2.84871264659459        0.00925302916437
