29
 energy: -55.990605668511 gnorm: 0.000867108298 xtb: 6.6.1 (8d0f1dd)
N           -2.38895913935272       -4.22356330832489        0.00604223674056
C           -2.27688629404924       -3.08124777388054        0.00512446520883
C           -2.20071368594817       -1.66658201421757        0.00425192964871
C           -3.45764439203092       -1.06131440520056        0.01523258598792
N           -3.83514319123745        0.19584096025230        0.01474024823772
C           -3.07132514271222        1.27599306279102        0.00649520789398
N           -3.77050424078513        2.42751915963238        0.00449884136166
H           -3.31283556470471        3.32289780599194        0.00071134936392
H           -4.77376965929370        2.36451712423770        0.01011056221081
C           -1.64242636285985        1.36447566599314        0.00111589255566
C           -1.12499011171299        2.68420223307525        0.00089893028286
N           -0.81494272533266        3.78950911062710       -0.00199379129615
C           -0.65974715528870        0.36658562444783       -0.00441312967156
N            0.57274548138767        0.88226893657879       -0.00940810876946
C            1.61160696294544        0.08046082456570       -0.01856426747101
C            1.48738180897350       -1.39943484861420       -0.02394920788486
C            2.75660362477563       -1.93415463638478       -0.03414801183950
C            3.68074606333747       -0.85723921876218       -0.03528106715282
N            5.01157822750913       -0.96254765519717       -0.04386439218540
H            5.57775641884987       -0.12966551146256       -0.04367917700961
H            5.45838320566239       -1.86309743935567       -0.05035159486686
C            2.97406259521380        0.38601788979184       -0.02549440669756
C            3.60405905799762        1.62865971427519       -0.02368524927687
N            4.20661746840927        2.60847879874889       -0.02420369886837
H            3.02000497323448       -2.97475731093385       -0.04008407739837
C            0.20343819831991       -1.93252187526961       -0.01689279459892
C           -0.90034133796552       -1.08974897665258       -0.00619343148072
H            0.06178580515949       -3.00445023412933       -0.01900767722248
H           -4.30458088860173       -1.74321673132374        0.02475796629781
