24
 energy: -48.581732357541 gnorm: 0.000983345991 xtb: 6.6.1 (8d0f1dd)
N           -2.44070446483334       -3.54259629577021       -0.35139015294127
C           -2.31095280692716       -2.41324656674144       -0.20873332038072
C           -2.23920958303674       -1.00637374153248       -0.02864764230542
C           -3.44196490107112       -0.31948539338690       -0.25287878891988
C           -3.72667493061498        1.00148268334086        0.00743393654501
C           -2.80140083347383        1.95618697960119        0.46581205827437
N           -1.51284823846321        1.91750158293536        0.35648555575810
C           -0.65714646585194        0.94642521919892        0.11781973192715
C            0.66787271382936        1.32533660734878       -0.20385203722369
C            0.98118573644109        2.68107607758710       -0.44117995832302
N            1.24031320906590        3.77686782572619       -0.65454003843975
C            1.64714535408152        0.34016170136879       -0.17994486437925
N            2.96437652079440        0.37098774700731       -0.29998438099515
C            3.34503761818671       -0.88455703377392        0.04854287322665
N            4.61760722625253       -1.25008693382354        0.05086735245843
H            4.85743369244783       -2.18399617699255        0.33515417636839
H            5.31902339047830       -0.58755525484983       -0.23146451436057
N            2.35737988112120       -1.74077967260397        0.42096116290434
C            1.25666038956820       -1.03354399039399        0.26492254047784
N            0.00302528924642       -1.40494769131837        0.41796444490182
C           -0.94531479320093       -0.50357342827299        0.23598842739103
H           -3.18216655535333        2.89631852346818        0.85096889721122
H           -4.74356569437420        1.33728024981858       -0.13955904566945
H           -4.26186407991286       -0.94018624813957       -0.59475392740629
