24
 energy: -43.771580410308 gnorm: 0.000838213857 xtb: 6.6.1 (8d0f1dd)
N           -0.97983071178319       -3.90774951097866       -0.00475847309722
C           -1.06273512894923       -2.76379277294940       -0.00542005201195
C           -1.26081531869778       -1.35843538578898       -0.00821811759375
C           -2.62518667782439       -1.02072980423766       -0.02159901194596
N           -3.24571674840392        0.12788484634393       -0.01048060997891
C           -2.69529346357452        1.33968906516828        0.00048580931316
N           -3.60619268054654        2.33872045481401        0.01360980217045
H           -4.57929484425770        2.09021061651952        0.04531844306740
H           -3.33156744453235        3.30248164046975        0.05891944013690
C           -1.33328418890915        1.70144212554592       -0.01571813208283
C           -0.17071178553250        0.94325378496645       -0.01702870351820
N            0.93071523535922        1.70237693701511       -0.02922782002599
C            2.10779041511354        1.11603624692633       -0.01344412355955
C            2.27644361718328       -0.36790161876961        0.01838037885022
N            3.56647009461915       -0.68680258155721        0.03310712343063
C            4.22843659847513        0.48898052176501        0.01201378157345
C            3.40818592824651        1.61542534613617       -0.01828916978878
H            3.71780586458655        2.64002419871637       -0.03891621373350
H            5.30512267703367        0.48049243635554        0.01953606582720
C            1.14495952072307       -1.15490977024763        0.02116410983600
C           -0.11156812776486       -0.53955053414755        0.00036870376599
H            1.22560808663469       -2.23235085112433        0.03653229451760
H           -1.13397341733431        2.76697249540627       -0.02419219015687
H           -3.31074875566435       -1.86465111104770       -0.03645447479552
