28
 energy: -51.476746225852 gnorm: 0.000861392561 xtb: 6.6.1 (8d0f1dd)
N           -1.62321670363410       -4.14093430120747        0.01066540926934
C           -1.64412902598083       -2.99330681007712        0.00816331433497
C           -1.77930784577233       -1.58193581314839        0.00654791599508
C           -3.13170510560320       -1.19671685898025        0.01721547171589
N           -3.71347830187154       -0.03066623807168        0.00600231507620
C           -3.10322596890785        1.15717149577718       -0.01208526301957
N           -3.97293841054488        2.19435974765396       -0.04171659993449
H           -3.66027746276615        3.14755117966828       -0.02961645400956
H           -4.95540341052194        1.98602798169645       -0.02597193207747
C           -1.73293664072507        1.46243710050765       -0.00226910053355
C           -0.59154913577455        0.66323278163228        0.00551340911846
C            0.64790912293178        1.34006854180375        0.01429948278656
C            0.70893901380274        2.74508858260173        0.02474116450145
N            0.79564263814313        3.89173128304767        0.03421511347174
C            1.85980557105942        0.63816306825103        0.01023745156610
C            1.82836015267250       -0.83833605354065       -0.00418589427311
N            3.05982851481157       -1.34030191302437       -0.00895522644641
C            3.88617672431211       -0.26707238102421        0.00193430735138
N            5.21094693168328       -0.43878727697008        0.00029340935822
H            5.57620850014662       -1.37516351108331       -0.00781181584507
H            5.83611960323524        0.34674999075146        0.00922162395370
C            3.19287286730742        0.97625442864264        0.01403021393737
H            3.63617891080689        1.95162779748585        0.02382734439788
C            0.61882582948183       -1.50526537881383       -0.00869589517321
C           -0.59245890697519       -0.81196983214279       -0.00063637762375
H            0.61863025306801       -2.58458739909565       -0.01616945069420
H           -1.52880505753297        2.52861739178853       -0.00320298152014
H           -3.84418891305194       -2.01823381382878        0.03437610581613
