32
 energy: -64.755071666828 gnorm: 0.000780703684 xtb: 6.6.1 (8d0f1dd)
N           -2.32336061844412       -3.60936999564132        1.36853236219918
C           -2.33202941334963       -2.58183180822391        0.85944264372950
C           -2.46287909950239       -1.25703767112194        0.37079519307499
C           -3.78267036799136       -0.80831260219780        0.38502455127594
N           -4.31133473071676        0.30158027100429       -0.07512725485243
C           -3.67543510062102        1.40979731935094       -0.40072495738278
N           -4.43402572814474        2.35317712538987       -0.98709321945848
H           -4.07484269617509        3.26854673202649       -1.19103542170444
H           -5.40581661711373        2.15053203503006       -1.14812491912551
C           -2.32332984968933        1.75008271216118       -0.09929833435282
C           -1.23811401561373        0.92868277129983        0.10317382244381
C            0.03632062945428        1.57340311537189        0.26643179811567
C            0.08507901051125        2.97098058760046        0.45116738715944
N            0.09897263380743        4.10832756366360        0.60437966851542
C            1.20929377033271        0.85258451738614        0.16628856413084
C            1.15819827456455       -0.58142846220785       -0.12283054242289
C            2.46126348333001       -1.03531110800833       -0.26130165277601
C            2.94376803818087       -2.31360712335862       -0.54595307383783
N            3.44331976694595       -3.32236430946633       -0.77740813151249
C            3.34411933118337        0.08893742997509       -0.03984408755823
C            2.56682667834181        1.23584245058671        0.21810701701458
C            3.10252812414457        2.50041635645425        0.47087103841401
N            3.61308511991956        3.51019658578233        0.67087262221337
N            4.67435232225619        0.01986279377382       -0.08006150060210
H            5.22965861806216        0.84197675444480        0.09181850421942
H            5.12982204484754       -0.85805265047712       -0.26975316700925
C           -0.08305940240728       -1.24058379145382       -0.15519741254998
C           -0.08650581833783       -2.61587740737824       -0.48436250392000
N           -0.03004032590169       -3.69548082096159       -0.86693855455513
C           -1.27300361841888       -0.53634121019016        0.05976861369988
H           -2.11658146378445        2.81463947141861       -0.10486341310520
H           -4.52328569827273       -1.51015473345994        0.75644650310218
