31
 energy: -59.440907643093 gnorm: 0.000689764790 xtb: 6.6.1 (8d0f1dd)
N            4.67733499848472        2.55634421218793        0.97799693143287
C            3.98740506119247        1.68399334704500        0.68129260656544
C            3.21830871876034        0.58498062389532        0.31237491492170
C            1.82021226923645        0.49901063947506        0.19052975010957
N            0.91589458026293        1.42955079077168        0.31448458308294
C           -0.38148079622960        1.12190032269842        0.10394356159104
C           -1.18054340543307        2.23594659210993       -0.03070941139649
C           -2.56387725687709        2.31857446021322       -0.33068226809753
N           -3.49058316034036        1.40875484051345       -0.12768271440503
C           -3.34155466012921        0.14598715360635        0.24765214261056
N           -4.49016425977140       -0.41831873951342        0.67795745061611
H           -4.54328906848542       -1.40013731521646        0.88752881815076
H           -5.32511958125378        0.13889555318531        0.64714739081085
C           -2.17700765238113       -0.66917814397951        0.15684903227115
C           -2.43201709526784       -2.03389277309283        0.40975969316617
N           -2.75406652835718       -3.09366283603489        0.72122161882640
C           -0.83768525577251       -0.27220114427578       -0.05534717166474
C            0.14584206846465       -1.23906363796445       -0.32532557312678
C           -0.14542550298176       -2.55233127167775       -0.74665824778521
N           -0.25872748830117       -3.60491406850642       -1.19265411118442
C            1.50379331311949       -0.89071807259684       -0.22549248579896
C            2.68265326406345       -1.57542836050771       -0.37240624402270
C            3.74510143244941       -0.68701889212039       -0.03639293742760
N            5.04552197856506       -0.99729966273743       -0.04559694585418
H            5.35051781548816       -1.91959014903337       -0.30296476350957
H            5.72754356740863       -0.30437139594887        0.21410662783270
H            2.80311808851439       -2.59927765475549       -0.67198326187008
N           -3.02388743597768        3.49943664605517       -0.79591995577095
H           -2.40223716110243        4.26971617801412       -0.95861745414251
H           -4.00520230651019        3.59451028160723       -0.98627952440148
H           -0.64155390443317        3.17265530838449        0.03040329117083
