26
 energy: -52.808927214537 gnorm: 0.000427124269 xtb: 6.6.1 (8d0f1dd)
N           -0.70421589421065       -3.68932462298152       -0.92581222569397
C           -1.03004519937638       -2.64720220385309       -0.57561346429270
C           -1.56279148155969       -1.36984644592987       -0.26669002485967
C           -2.95429211472481       -1.34618206429971       -0.27984924759353
N           -3.79864652074009       -0.40079703440952        0.07396990128757
C           -3.55110193627569        0.88024807711329        0.23702447400693
N           -4.55788412001862        1.60562146930980        0.75073912102414
H           -5.40680751084075        1.13194733808940        1.00946746590086
H           -4.48957497725963        2.60202863976431        0.85424664282164
C           -2.37488978775856        1.58154100477931       -0.17565190839984
C           -1.09340961853981        1.10773403255020       -0.30955089398647
N           -0.20497928302017        2.10587161035511       -0.57824533967205
C            1.05381198791736        1.86586484845629       -0.44009667501592
N            2.06192643625359        2.76814853153218       -0.60639057652961
C            3.16062302640858        2.14080507870536       -0.28878747337667
C            2.96291987877977        0.76592060358126        0.11295448113424
C            3.97339158856005       -0.11149496823823        0.50958960998072
N            4.82905680070729       -0.80483147201957        0.83476663318021
C            1.60085034379967        0.55953638035539        0.00394035901103
C            0.70273739047550       -0.51152309727205        0.13291058879607
C            1.20761965491307       -1.76411060736879        0.55463758203981
N            1.67464442831357       -2.71445232070771        0.99348772973652
C           -0.65765162424660       -0.27847550088722       -0.09961366470721
H            4.11417303458952        2.63707830417490       -0.33589536594913
H           -2.46915314264556        2.64993351348470       -0.32534804062566
H           -3.44798778740424       -2.27987866218913       -0.53264264171667
