35
 energy: -67.930290900039 gnorm: 0.000821554504 xtb: 6.6.1 (8d0f1dd)
N            6.26148511017685        0.56970598054418        0.18211921061458
C            5.11966054330121        0.44957199576957        0.11705754450798
C            3.71637942205922        0.31771408841401        0.04436818987547
C            2.99478706874765        1.52606179320577        0.05150879923226
C            1.59870308347281        1.66991187174187       -0.01690990815683
C            0.54410454693089        0.77540778894912       -0.03871257031033
C            0.65009749498859       -0.68772339907244       -0.01764596607371
C           -0.52290315324406       -1.44547231789659        0.03008297047909
C           -1.77542105808964       -0.86196579226320        0.03005350473683
C           -1.90652294914213        0.59129121967968       -0.03877738837228
C           -3.27415144003509        0.90520936204815       -0.04034455063150
C           -3.89475576988154        2.15253852654969       -0.09614149982126
N           -4.48600298083742        3.13780421982110       -0.14099960034904
C           -3.99416917658952       -0.32001447257507        0.03089859792977
N           -5.32311361973904       -0.43896181146038        0.05314414670127
H           -5.90336879883525        0.38292181614069        0.01637549384008
H           -5.75102266662025       -1.34843269497267        0.10488898001781
C           -3.06457942306172       -1.40587052654699        0.07588656225412
C           -3.42986822364900       -2.74678557348493        0.15447966496401
N           -3.77695544203981       -3.84206088530982        0.21838466256108
C           -0.75664929989377        1.36668871214797       -0.07314061133556
C           -0.89336099112606        2.76952306519403       -0.12430655298802
N           -0.99749257369793        3.91236898235028       -0.16905667164180
H           -0.46174423788422       -2.52302194247440        0.06568923870420
C            1.87058340144565       -1.41206424656104       -0.06548190809982
C            1.73166192597148       -2.82099575175305       -0.14788350067710
N            1.70482854260794       -3.96717248223964       -0.22894059446147
C            3.22704805351305       -1.00947714375165       -0.04424590772657
N            4.16709497468930       -1.98333768078246       -0.10130715477151
H            5.14424732528326       -1.74814283162476       -0.07350240389021
H            3.90213232894175       -2.95227472283921       -0.14517414117760
H            1.29192253695795        2.71076165913593       -0.03464160061650
N            3.69859376479452        2.68040226908463        0.11903686093027
H            4.70281172728289        2.67243142147728        0.16901284612237
H            3.22110569340159        3.56399878745458        0.12613880262995
