28
 energy: -46.653515713801 gnorm: 0.000482417093 xtb: 6.6.1 (8d0f1dd)
N           -4.96633245115034       -1.44781016442914        0.83109939053689
C           -4.04014061136576       -0.83416453959409        0.53501695571793
C           -2.90251884628989       -0.08639760639099        0.17360700697916
C           -3.13835773207681        1.23134465150993       -0.28574024326717
C           -2.20688973737514        2.17641901154111       -0.59188994616150
C           -0.81039596995373        2.11525412755507       -0.36943006010688
C            0.02559834717982        1.07787939210038       -0.05338522827897
C            1.40394447239674        1.39364575625466        0.20472508226642
N            1.80870459823245        2.67542352018300        0.42976055226230
H            1.16995162137863        3.34612629302302        0.81838052346510
H            2.78066815334628        2.80088875619515        0.65531973961874
C            2.34487242139342        0.37885780249615        0.12581197491433
C            1.95981130085043       -0.99297779789886       -0.13718211628725
C            3.15792342049471       -1.69822568804569       -0.18040855952858
N            4.21441202966035       -0.88798054710452        0.02481805119179
C            3.75351580799608        0.34002835111773        0.21102632115495
H            4.43526821758473        1.15353515833346        0.38407602347058
H            3.32034315563533       -2.74886404151656       -0.34098955001612
C            0.60599035922759       -1.35953069845723       -0.20700804163879
N            0.29463555082670       -2.68192078329323       -0.34363575021192
H            1.06406331275885       -3.30321629467136       -0.52281002122602
H           -0.59740287341034       -2.95841325037215       -0.71376980010350
C           -0.38320482120523       -0.36328062683828       -0.05987072824536
C           -1.69015416726283       -0.77366055303793        0.17913398584018
H           -1.80080445687446       -1.82684855050913        0.41938794931855
H           -0.32916579290879        3.07954821633102       -0.48786155625953
H           -2.57400948778961        3.12667563377686       -0.95601915249815
H           -4.18186014219899        1.50001649144185       -0.40233346620732
