22
 energy: -45.117902192813 gnorm: 0.000987567956 xtb: 6.6.1 (8d0f1dd)
N           -5.65309714970923       -0.12852935691549        0.06405887995024
C           -4.51385538588260       -0.00787376444892        0.02135433209633
C           -3.11086377906693        0.15029825743702       -0.05549865750343
C           -2.36103652963943       -0.99200873019316       -0.39745168452394
N           -1.09045689929360       -1.17780769301449       -0.22234322811625
C           -0.07771060903770       -0.35956368454078       -0.06665168888751
C           -0.11377212927775        1.11694982417128       -0.18261805420504
N            0.98691395768154        1.81042203182758       -0.35526768963039
C            2.16150914436389        1.25420946355217       -0.20677295614008
N            3.37492160020293        1.71925644459225       -0.44878732620352
C            4.19057471117934        0.71939400599313       -0.07632936222531
N            3.61707589887478       -0.41905168095637        0.30869849756945
C            2.31073746710785       -0.16483128384473        0.25389829335655
C            1.18144283547706       -0.96052838821888        0.22017737457660
C            1.26608290833019       -2.36880748047892        0.32584443532623
N            1.34018280172072       -3.50586737501187        0.43846289731692
H            5.25871362242229        0.82839328628999       -0.10853892611751
C           -1.28887887393018        1.84981434686158        0.10382866672067
C           -2.58654444252024        1.41847520082763        0.24371230340702
H           -3.31230527981756        2.16174303240670        0.55038721718424
H           -1.09482709053136        2.89667148793038        0.30252675007357
H           -2.90073074685114       -1.87904706546738       -0.71417862842466
