25
 energy: -43.498933912886 gnorm: 0.000219462099 xtb: 6.6.1 (8d0f1dd)
N           -5.93183681194229        0.00030644847266       -0.00273787519713
C           -4.78473272209276        0.00026695199687       -0.00236128581893
C           -3.36840980101303        0.00021304070246       -0.00174172629199
C           -2.75668210415551        1.25875269230644       -0.00195288943494
C           -1.41366724638526        1.55766235081146       -0.00137864226904
C           -0.27276391983764        0.73782297006307       -0.00048295874138
N            0.86721106186530        1.43294439708332       -0.00009679477015
C            2.00131697129517        0.74870501089640        0.00066495339044
C            2.00125959350791       -0.74868937342886        0.00102614593549
N            0.86710119430453       -1.43284210428758        0.00069863962964
C           -0.27282054700715       -0.73763359061512       -0.00001918839788
C           -1.41378680806114       -1.55738583298459       -0.00025433832309
C           -2.75677874636485       -1.25837348495069       -0.00097646036792
H           -3.43591373831333       -2.10301500547177       -0.00097050567695
H           -1.15569289556724       -2.61006458484092        0.00023078840001
C            3.31318331193997       -1.16475136752569        0.00172343822369
C            4.12168373228340       -0.00007318341067        0.00183066741414
N            5.46388921447860       -0.00012425262304        0.00247158160057
H            5.97333128857108        0.86550695940400        0.00238605712028
H            5.97326518565710       -0.86579432932474        0.00275564061512
C            3.31327251582675        1.16466676884581        0.00119850342126
H            3.67176902141477        2.17557770617221        0.00114354770340
H            3.67160234864801       -2.17568969746769        0.00211509425872
H           -1.15549257413530        2.61032137665882       -0.00163588760145
H           -3.43575218491702        2.10344612791782       -0.00262894432192
