34
 energy: -68.985086592266 gnorm: 0.000895502366 xtb: 6.6.1 (8d0f1dd)
N           -5.95061054966392       -0.51583927824495        0.91806006651702
C           -4.84448815883721       -0.47469967484587        0.60936842058238
C           -3.48083000097664       -0.43340065836239        0.24656465552184
C           -2.78452154032075       -1.64123602519702        0.33599446295608
C           -1.42287844851428       -1.84866937860372       -0.02209715482591
C           -0.38202426200784       -0.96910238041190       -0.16354466780718
C           -0.46857620281268        0.47801237215588       -0.10243032023006
C           -1.67463029806762        1.18556509058930       -0.42867677669201
C           -1.48344783139585        2.43981318064091       -1.05398851784883
N           -1.40907135792007        3.40158272344635       -1.67854467435646
C           -3.01640909209758        0.81679604621479       -0.27544245233620
N           -3.96853330863187        1.71463218316731       -0.60852949481423
H           -4.94217507800295        1.50750639335583       -0.46556256483868
H           -3.70768297061818        2.63806734700118       -0.91293242293581
C            0.68568883299676        1.22652097789556        0.14726310711954
C            0.59482934418852        2.59651577014964        0.48510473661111
N            0.52941921206744        3.67409123708768        0.87111647013753
C            1.95345732635910        0.61387339295831        0.16354156766716
C            2.05929378701191       -0.80434421909159       -0.14569081204337
C            0.93746568420964       -1.56610000370684       -0.30812415663164
C            1.04006322807698       -2.95738138381546       -0.53547203940632
N            1.08730345484774       -4.08593100135948       -0.73354143153914
C            3.46579669520293       -1.13823443794607       -0.13563061266497
C            4.01121132656221       -2.39992440341857       -0.39722537217584
N            4.47376876241353       -3.42914300798270       -0.60821974465798
C            4.15827534629767        0.00532314246454        0.18201763158963
C            3.24052740958806        1.09270968468802        0.37803966615367
C            3.63390754562234        2.38923775946766        0.72298715705555
N            4.00393436838854        3.43698527492710        1.01261185335469
H            5.22559472897135        0.09268750521087        0.27359518774927
H           -1.15806119029799       -2.89828236614092       -0.09120964760257
N           -3.44476942858306       -2.74159801264324        0.75236515400529
H           -2.97388430757004       -3.62671104202355        0.81868419917600
H           -4.41360358379274       -2.68974180202301        1.01989428811084
