27
 energy: -51.752578676598 gnorm: 0.000427061599 xtb: 6.6.1 (8d0f1dd)
N            5.77832883727976        0.42041525570800        0.37298076549175
C            4.63571772827703        0.47800091360766        0.26187198868268
C            3.23765644486799        0.52010086813528        0.10505029832429
C            2.60625989214240        1.75786402551602        0.25167100726842
C            1.27808818260945        2.07506463989303        0.08520897674118
C            0.15395473589960        1.24351662952981       -0.10060931088869
N           -0.99225664309088        1.87872933281195       -0.24629588815858
C           -2.12790356514083        1.19070213592078       -0.17104546610904
C           -3.43959246606946        1.55991885915126       -0.33532744411055
C           -4.19501070237145        0.38013209707874       -0.04620864252629
N           -5.52456059034863        0.27383110166027       -0.05943393463560
H           -6.10682733154990        1.05645500465720       -0.29715300470768
H           -5.93663015150261       -0.61462520395303        0.16856778766719
N           -3.43033341989582       -0.69057021039384        0.25011093006104
C           -2.17341038644799       -0.25685556765756        0.17578234991415
C           -0.97505742075040       -0.94423641886098        0.25545908792684
C           -0.91810772180815       -2.33937273522147        0.45835605231190
N           -0.86054464818053       -3.47168403366065        0.63057657935432
C            0.23526284629082       -0.23122410541391        0.02347749737724
N            1.30698654446786       -0.97755905015024       -0.07734963743464
C            2.58894550030918       -0.71167404350529       -0.20959992493515
N            3.33714498033232       -1.76451280815127       -0.59680269523656
H            4.34162174644499       -1.71830282949152       -0.58646989230779
H            2.87654058504201       -2.65375243940775       -0.69270087115592
H           -3.83737106190224        2.51757263025227       -0.60005013392957
H            1.01326354744474        3.12168125148701        0.16614922688185
H            3.26990377285468        2.58294853286017        0.48255210313249
