23
 energy: -44.840482544719 gnorm: 0.000663162147 xtb: 6.6.1 (8d0f1dd)
N           -3.34057032604901       -2.85471272773561        0.27765477076818
C           -2.91442615369984       -1.79529892580345        0.18120836556457
C           -2.44830312908007       -0.45902514990863        0.04962133404405
C           -3.44252193744375        0.50896018050582        0.37190028759153
C           -3.39595111903740        1.85248425251679        0.16598496713643
C           -2.28724279152690        2.55964267622310       -0.38713454994287
N           -1.05949650950066        2.20330202768853       -0.40390564709878
C           -0.43547808208688        1.04998656178729       -0.16368174304975
N            0.85314712299515        1.16314260741717        0.04163843700703
C            1.60393541807190        0.06922585756612        0.07692782262857
C            1.06461684023066       -1.27562981497640       -0.21793971403786
N            2.07124132805657       -2.18922893359796       -0.25862410694469
C            3.17472563784722       -1.52510154120223       -0.02229171805238
C            2.97773941082722       -0.11284979558875        0.17248925599318
C            3.97974084730125        0.82469881883807        0.42318746966468
N            4.82501605906072        1.57401003576148        0.63149225325670
H            4.12447466267904       -2.02954220062584        0.01369666907129
C           -0.27297780882780       -1.42071500349708       -0.43501735723205
C           -1.10238503999781       -0.28115635769533       -0.25668758284741
H           -0.70079753608004       -2.38117340113112       -0.68329463608046
H           -2.47464565768733        3.55933649810023       -0.76763608926104
H           -4.26790400530782        2.44011373573647        0.41850274994737
H           -4.36170460244459        0.09260793252178        0.76796805767456
