29
 energy: -51.991461499558 gnorm: 0.000945246456 xtb: 6.6.1 (8d0f1dd)
N           -2.08168186764905       -3.09886282017895       -1.11145497262878
C           -2.11770190480614       -2.06760922580401       -0.61081751226030
C           -2.35060180721197       -0.74365074800805       -0.14494412622596
C           -3.71690658080947       -0.49628598020264       -0.00144831617318
C           -4.36056759260446        0.68591737779655        0.31782192896588
C           -3.79921934408407        1.95216581106693        0.39073445569194
C           -2.48485196232002        2.31994834439775        0.16912966551746
C           -1.31214940520271        1.57126332466403       -0.00590440607204
C           -0.13503245690209        2.31171382016658       -0.16961966321306
C            1.11109408131375        1.71788010365693       -0.18735756938293
C            1.21153712058635        0.26930757873395        0.02632933055262
C            2.56229345747738       -0.05598857061948        0.05690437653779
C            3.19430876084872       -1.28587900432302        0.23006891204277
N            3.82458633907385       -2.23971783012681        0.35761383625274
C            3.30051109309103        1.16418188045179       -0.15959285257327
N            4.63936003147124        1.21760224714111       -0.20545460002574
H            5.11469359119157        2.08558897902364       -0.37596932452677
H            5.17456268932199        0.37281266571226       -0.09505484534380
C            2.40184203826584        2.22812000522382       -0.30097602652576
H            2.66884817501835        3.25444619423930       -0.46454096235421
C            0.04242246686789       -0.49469180570632        0.12706524692372
C            0.19739151095175       -1.86060171693462        0.45759242803856
N            0.40106309989528       -2.92028119499657        0.84751521491953
C           -1.22695972575839        0.10258467921615        0.02035910539053
H           -0.20520805221901        3.38783985672945       -0.24377795367424
H           -2.31321382293161        3.39085996864845        0.17772151937362
H           -4.48454639353621        2.76379221662377        0.59862130561618
H           -5.42907652743193        0.61968889347909        0.47471520553727
H           -4.35001967080826       -1.36433222287120       -0.14256191178142
