33
 energy: -58.075856664524 gnorm: 0.000888905518 xtb: 6.6.1 (8d0f1dd)
N            5.04542988798134        2.60767681609441       -0.94410405179670
C            4.31853398784724        1.75853847721213       -0.67892537671944
C            3.41771759121551        0.73037674098506       -0.33637488664258
C            3.83451697245671       -0.57391518642452       -0.50648662158922
N            3.26940050575638       -1.65433810013589        0.00658247516627
C            2.04530371663511       -1.82094355906054        0.41025806391831
N            1.82900844958859       -2.87031779813507        1.22166085416618
H            0.89463274897313       -3.11997045345603        1.49424314861434
H            2.61313372941177       -3.42457405797669        1.52073094642637
C            0.86938624054964       -1.02344451700216        0.04923445540878
C           -0.33603612757655       -1.62825171572204       -0.22557164596961
N           -0.46237007925468       -3.00524476132337       -0.37922262562260
H            0.34360132176643       -3.47432928110007       -0.76532187508728
H           -1.32249632060801       -3.27648532660535       -0.83083896278492
C           -1.50863210662604       -0.82708988067616       -0.28826265694290
C           -1.43795272901659        0.56762923005560        0.09373660821292
C           -2.76856232914623        1.08492790950750        0.04552187734586
N           -3.14659633159005        2.39096302157421        0.33360552409459
H           -2.60237444064116        3.09628925346171       -0.14698903053182
H           -4.13938953806593        2.53958396818751        0.19739955741866
C           -3.61028416762629        0.03355204307307       -0.31417887929587
C           -4.99146944943662        0.13873088887626       -0.47575961813377
N           -6.12763533588972        0.26580668228098       -0.60964746414992
C           -2.82915460860419       -1.14310218871339       -0.51375903130598
H           -3.24673852225194       -2.09402180870594       -0.79096160024597
C           -0.25324593508859        1.15437515916819        0.48416829712617
N           -0.23305254044000        2.42319517094056        0.97626558644887
H            0.57110888390422        2.72536579259871        1.50035273650850
H           -1.12360648454936        2.78617667149066        1.27958186700655
C            0.97743502701838        0.42064123056865        0.24238039903891
C            2.13366766472722        1.14917865953283        0.12225368060289
H            2.05634216225856        2.22292371452987        0.24328415056848
H            4.78477384152164       -0.76200851820230       -0.99399493595280
