27
 energy: -51.751276784248 gnorm: 0.000612771910 xtb: 6.6.1 (8d0f1dd)
N           -4.82569969342431       -1.53899042078427       -0.00479027058753
C           -4.09092458440658       -0.65467805196571       -0.00258654657198
C           -3.21165457929637        0.42895769683201       -0.00009929440438
C           -3.54341629780492        1.77388486888329        0.00244338848763
C           -2.37537327944314        2.57989080225897        0.00459559434006
C           -1.27824276323948        1.75083064377884        0.00354167102526
N            0.01865557806192        2.05074842149267        0.00424162714797
C            0.91693265209939        1.09687198049755        0.00225668918042
N            2.16957182353981        1.55171849498148        0.00191287279277
C            3.32438492949796        0.94215533054272        0.00124167892229
N            3.67640313717935       -0.36618697151633        0.00387945099192
C            2.86091792251518       -1.38121740791828        0.00411227404182
N            3.44624830481892       -2.59416985828970        0.00702410768723
H            4.45029002771463       -2.63818154780412        0.00939806719393
H            2.90943414792897       -3.44250586425695        0.00780994917518
C            1.41697050237378       -1.39236336500616        0.00117445312651
C            0.54274969921707       -0.35042256222897        0.00006434259692
C           -0.87722337640346       -0.66651980861524       -0.00154845209235
C           -1.28428040953389       -2.02073698150574       -0.00415357778436
N           -1.57087448572465       -3.13159273587630       -0.00716626531186
C           -1.77883927553998        0.35482378732090        0.00040531902249
H            0.98604417316327       -2.38917072323294        0.00061909775311
N            4.39184266974123        1.76330293160097       -0.00148621658035
H            5.31811981336607        1.37799478866004       -0.00132992614270
H            4.23210676200677        2.75440521384256       -0.00266425217632
H           -2.35936672273459        3.65173016207635        0.00664306148067
H           -4.55006452537301        2.15399127353237        0.00273674068558
