28
 energy: -52.265843889957 gnorm: 0.000699749233 xtb: 6.6.1 (8d0f1dd)
N           -2.18454178281908       -3.13200839451271       -1.03844437143610
C           -2.18775094376265       -2.08578413375454       -0.56886211977179
C           -2.36527540006740       -0.74417352283252       -0.12900690029892
C           -3.71989157847495       -0.43042925391058        0.00598586290921
C           -4.31402964231005        0.78116974462847        0.30684981596746
C           -3.70208851042675        2.02660969676471        0.37519969341893
C           -2.37363298389465        2.33411124141597        0.17053934003672
C           -1.23403932336116        1.52657780574213        0.00774180967977
N           -0.12727322946498        2.24954753903861       -0.14182791853114
C            1.05001388640651        1.65456783448686       -0.17453857930830
C            1.20735318072361        0.19636191714155        0.02435271412145
C            2.56996245817152       -0.07436605663460        0.04277914400218
C            3.24253485273771       -1.28322814775281        0.21505972189169
N            3.88469492803827       -2.22846440375568        0.34593288396781
C            3.25304653193641        1.17381100936179       -0.17704007910975
N            4.58374288901170        1.28610782664840       -0.24203588128348
H            5.16101411372514        0.46852980387150       -0.13320872446160
H            5.01761181943874        2.17808846554772       -0.40259962636731
C            2.31205517790551        2.21175443678194       -0.30103483435913
H            2.53590255882022        3.24797687362208       -0.45806317710619
C            0.05023392090961       -0.57501630394233        0.12750954830278
C            0.19514029274642       -1.94822598931602        0.43340121824062
N            0.39535556129281       -3.01768759922511        0.79678629082956
C           -1.21110862275162        0.05546969220809        0.03141793737747
H           -2.11524545638498        3.38619856217853        0.17399171838431
H           -4.35613456293542        2.86665569129846        0.56994996828926
H           -5.38577158542630        0.76017897316464        0.45430263693826
H           -4.39002577298444       -1.27197566476516       -0.12717429562390
