29
 energy: -55.985857735409 gnorm: 0.000407500405 xtb: 6.6.1 (8d0f1dd)
N           -6.03845575083200       -0.61170229397070       -0.01948545246976
C           -4.89027255737473       -0.60754785164101       -0.01396110867703
C           -3.47578787692627       -0.60092640496454       -0.00692741366726
C           -2.88569498868791       -1.86697586819980       -0.00212451664962
C           -1.55882087002509       -2.22535072459211        0.00492180433093
C           -0.39408015132503       -1.44214912404270        0.00942273125832
N            0.72992481871583       -2.16047851567537        0.01590104991008
C            1.88264075229712       -1.50773153553617        0.02087025601302
C            1.91614430889668       -0.01772977713535        0.01933794332353
N            0.80657654824484        0.69077275869555        0.01280963534267
C           -0.35782989603820        0.02691145054531        0.00769758976922
C           -1.46187500366639        0.89932251190841        0.00107315232029
C           -1.07591011351841        2.26794421341743        0.00152943009700
N           -0.86459540172375        3.39586147303481        0.00070853370241
C           -2.85842588980111        0.67451450261363       -0.00568725917917
N           -3.66595616613021        1.75854565985774       -0.01132914992153
H           -4.66564957810955        1.64795983470874       -0.01609932251383
H           -3.27113074127488        2.68403259593432       -0.01059673192570
C            3.25279228529851        0.36755251134617        0.02538981660339
C            3.81000792186957        1.64414673435199        0.02644784770458
N            4.35010050598266        2.65991073402143        0.02854552716467
C            4.03261049576896       -0.83779832239366        0.03061995961369
N            5.36748044153719       -0.85500314370005        0.03713129079945
H            5.87759899670467        0.01327739734259        0.03865546528786
H            5.87099793018144       -1.72498338450685        0.04053079552751
C            3.18262428445759       -1.96764990726979        0.02768903924120
H            3.50312859743681       -2.99091966253939        0.03029302004549
H           -1.34248261632823       -3.28624639529570        0.00759691738976
H           -3.59467457793028       -2.68703899201467       -0.00439255264144
