23
 energy: -40.048419139989 gnorm: 0.000523293175 xtb: 6.6.1 (8d0f1dd)
N           -2.06900897159562       -3.38873758682949       -0.00523373410757
C           -1.91741549515944       -2.25232473454106       -0.00299919337152
C           -1.81603805772000       -0.83302921353234       -0.00082011716632
C           -3.05519261158312       -0.21544779204897       -0.00421822500596
C           -3.33486563412841        1.15388910496659       -0.00055609248677
C           -2.42158618661608        2.18870979141049        0.00465332978529
N           -1.09786938136389        2.17680356523753        0.00095338798870
C           -0.23828512047938        1.19008552536262       -0.00092286196113
C            1.10632644558335        1.64026900968429       -0.00591693476357
C            2.14486292891553        0.75605949754688       -0.00255597745549
N            3.47955812158282        0.99622263430614       -0.00422246037848
C            4.05242714470003       -0.19391265379383        0.00168387199293
C            3.13564256084051       -1.27886721947733        0.00763729627066
C            1.88657866625873       -0.69792946864588        0.00514224104782
C            0.56901949411805       -1.15838961750360        0.00710894927835
C           -0.49909030498602       -0.28334341426529        0.00328908439364
H            0.38819957226819       -2.22492103279084        0.01114278943233
H            3.38603729651149       -2.32123098061002        0.01280454309165
H            5.12612164780120       -0.27333161283218        0.00163403084510
H            1.27308058194164        2.70578655465958       -0.01011219090509
H           -2.81989512619461        3.19932680617063        0.00992319359820
H           -4.38120603035735        1.42913244744352       -0.00168035671965
H           -3.91091074543763       -0.88039114401742       -0.00840102390312
