27
 energy: -52.557463528165 gnorm: 0.000674769927 xtb: 6.6.1 (8d0f1dd)
N           -6.49750286523030       -0.17859734720053        0.00086488266454
C           -5.35725266538126       -0.06254088545517       -0.00178086362422
C           -3.94590447256071        0.07775606275291       -0.00009810638661
C           -3.45563611056380        1.38018956933392       -0.00051935900170
C           -2.13892594253477        1.79787898295996       -0.00053246446345
C           -0.92815253939463        1.09060730818903       -0.00019577363308
N            0.12452855872706        1.91832042602940       -0.00037554735324
C            1.33544901994450        1.42576817066413       -0.00014864789467
N            2.46641691062142        2.13275242336945       -0.00028609056004
C            3.46236997591615        1.24051339265080       -0.00000825245621
N            4.73967384103250        1.60781495281484       -0.00013631373027
H            4.96304005296108        2.58853706279900       -0.00038913023498
H            5.47077653440808        0.91655175864137        0.00007995571628
C            2.99429753889666       -0.13291769024626        0.00023621085789
C            3.83648648188535       -1.24080712364815       -0.00020193244799
N            4.59640289112180       -2.10390044352506        0.00242029946439
C            1.61459108946225       -0.03083310341443        0.00035050611899
C            0.52126685395133       -0.90014287120097        0.00061266709637
C            0.75612774947724       -2.29365401526473        0.00143019480150
N            0.97106783933638       -3.42071653040020        0.00196401886765
C           -0.78398035523988       -0.36775998448563        0.00032727575199
C           -1.85016003061243       -1.29270247769299        0.00055408597272
C           -3.21037451671182       -1.12052062041391        0.00034429785095
H           -3.80543665937089       -2.02592258405956        0.00039557558110
H           -1.52436599927773       -2.32814108523818        0.00083015953911
H           -1.97572883550150        2.86861139295445       -0.00093585022386
H           -4.20433490376216        2.16342035808649       -0.00102540487318
