26
 energy: -53.595789916929 gnorm: 0.000757492102 xtb: 6.6.1 (8d0f1dd)
N           -3.92081979303317       -1.78997851581985        1.03296986825167
C           -3.26397304939374       -0.95054243566250        0.61391605381775
C           -2.52744997915496        0.19818925479827        0.20502663500748
C           -3.26272755302231        1.39657789720619        0.43081297924031
C           -2.97063993901369        2.65452741963499       -0.00979602798271
C           -1.77815838650132        3.02332946890791       -0.68351767301256
N           -0.64940430602894        2.41155955225356       -0.61187202566437
C           -0.28537413828313        1.20131443672277       -0.23729301116522
C            1.08634090781892        0.99977136080002        0.00185250818756
C            1.94125195054900        2.12381103722050        0.06933106703399
N            2.63029157159594        3.03589874700561        0.14178219182269
C            1.59072942328045       -0.29821007425978        0.08629556586069
C            0.70786368382650       -1.44331155782523       -0.21428371996106
N            1.41158212837699       -2.58666457749365       -0.25039366676840
C            2.66439175908998       -2.26093522310359        0.02005955160495
C            2.85814415521849       -0.86347707586903        0.22587390251152
C            4.07083443005913       -0.23421377359850        0.52003083363537
N            5.07760011820372        0.25705196715454        0.76883568200240
H            3.42749608934214       -3.01683547994584        0.06778997877510
C           -0.65463775421312       -1.26493787140554       -0.38110393021657
C           -1.45595441896890       -2.36518803786763       -0.76342850653060
N           -2.06763112797856       -3.24871428631800       -1.16066935152249
C           -1.20623233875010        0.03411435137492       -0.19570945183619
H           -1.74958898481673        3.97049233419772       -1.20965479428603
H           -3.69347346699982        3.43878902832453        0.16853205134466
H           -4.21102081820767        1.25125234514692        0.93437254284339
