22
 energy: -40.326742620891 gnorm: 0.000753516327 xtb: 6.6.1 (8d0f1dd)
N           -1.84764729097164       -3.32709445729105       -0.38297531574690
C           -1.78936351045239       -2.19375001436059       -0.21769978593806
C           -1.77283236847212       -0.79308723432887        0.00084974360830
C           -3.02286635172696       -0.19516539001426        0.10751409270583
C           -3.34359872205079        1.14866309216411        0.18053204154945
C           -2.48400975144268        2.23446838126322        0.00725399707670
C           -1.11660152685382        2.24546161889083       -0.11294827512902
C           -0.16885150853047        1.20504171788417        0.02672709057303
N            1.09598033460006        1.60261956616638       -0.00857483207749
C            2.07629573398337        0.74907564384551       -0.10206915267330
C            1.76970559284326       -0.72104874296706       -0.05184538522434
C            3.00985130537313       -1.33320261316483        0.10602486032503
C            3.93619251025359       -0.29492153740931        0.04348974362877
N            3.37898245241368        0.92733537640929       -0.01837971744345
H            5.00777490970152       -0.38064564521183        0.07169446082943
H            3.20554180067231       -2.38379918019840        0.17947220884304
N            0.52732234741852       -1.09611101085657        0.09633097780676
C           -0.46712881995816       -0.22500332648873        0.07969095479530
H           -0.65106235711481        3.19719516312942       -0.33648700138541
H           -2.96462228003072        3.20271955785248       -0.05618902714558
H           -4.39296460941974        1.38232338957729        0.29922888666624
H           -3.85621343383554       -0.88869764439081        0.10963069275554
