28
 energy: -53.054536578526 gnorm: 0.000668419384 xtb: 6.6.1 (8d0f1dd)
N           -3.80560660221171       -3.11820168971483        0.09852317531140
C           -3.27164452230964       -2.10731111008756        0.00843022632140
C           -2.69381495589041       -0.81536167248841       -0.11325864025871
C           -3.64115446183598        0.14007034865858       -0.58174106798870
C           -3.53971451554147        1.49587505557212       -0.57976596121936
C           -2.46956683477995        2.26179998268591       -0.06378495887279
C           -1.19778644741414        1.84642732485718        0.21691107472026
C           -0.39810211031650        2.83171794883801        0.86071334099593
N            0.13622402737761        3.62969083038927        1.48613854537515
C           -0.57143635862585        0.55442279729432        0.02558448696507
C           -1.32692215900583       -0.68810776542108        0.12213919611198
C           -0.60577025102572       -1.89559066998503        0.38393187063670
C            0.74958561344700       -1.92609399616409        0.31251353994728
C            1.50177594761864       -0.72194285330433       -0.01939612722743
C            2.83425865893728       -1.08021606658011       -0.11631308611317
C            3.93115133774480       -0.27674906805823       -0.43463737416508
N            4.86404942219700        0.34081509303308       -0.69646148957941
C            2.93116629688387       -2.49891177554815        0.17674108088160
C            1.69750243475585       -2.99970641075988        0.43341825581216
H            1.44483935770155       -4.01270540764077        0.68008186406508
H            3.86240441134272       -3.03507818361376        0.18004043464416
C            0.81020337839788        0.50716496404804       -0.11120542903094
C            1.55163240917488        1.66954871033670       -0.43207777887584
N            2.16389793723370        2.56725458666349       -0.79716488625074
H           -1.16448628021665       -2.80264071745517        0.56480065436967
H           -2.68149048996529        3.30825784488125        0.11870972627605
H           -4.39408204839688        2.05777137959561       -0.93213234890163
H           -4.57379375847735       -0.28881678373333       -0.92827983954974
