26
 energy: -47.231608844253 gnorm: 0.000567812459 xtb: 6.6.1 (8d0f1dd)
N            5.62130628727312        0.45190905518981       -0.54437831224657
C            4.48686128982299        0.43378278758250       -0.35774318517530
C            3.10217514458543        0.37052486339971       -0.11571934931253
C            2.37835952468643        1.54432527740419       -0.17544736804929
C            1.02079817429942        1.73914355976525        0.06030990320318
C           -0.00752283122168        0.81048724434732        0.19317422465743
N           -1.21371479752962        1.35121287392743        0.38449311257382
C           -2.27825235056408        0.60825926426656        0.21577568633511
N           -3.53943859084160        0.99574310758077        0.37906398721419
C           -4.28875971332203       -0.07725563448811        0.04849446272369
N           -5.62263493634072       -0.00416150613064        0.10201331493317
H           -6.04265424580518        0.86353036083173        0.38574406310693
H           -6.19724679703100       -0.79293342334541       -0.13252944099845
C           -3.52072443792569       -1.22055783382958       -0.32038506880684
C           -2.21007307583733       -0.81809516126663       -0.22949413934542
C           -0.95412719782095       -1.40928644456158       -0.29797587257718
C            0.17108503682801       -0.64946225080335       -0.01363087880497
N            1.32312467398225       -1.31868227949245        0.07807212952671
C            2.55908977135005       -0.93953213463653        0.18181622415299
N            3.44103404539120       -1.90622041355640        0.53522769889402
H            4.43101888749804       -1.75395428711657        0.44833941913978
H            3.09256208262807       -2.84502832635145        0.62176418175260
H           -0.83349242837790       -2.46345564450584       -0.50167577234773
H           -3.91460401804386       -2.17867102889881       -0.59657565974008
H            0.67618319266827        2.76521254742788        0.07627906786651
H            2.95379387394863        2.43704248925694       -0.39303796447652
