27
 energy: -52.529591201352 gnorm: 0.000795265306 xtb: 6.6.1 (8d0f1dd)
N           -0.33814304083941       -4.58427740608331        0.15067565950643
C           -0.55347351175906       -3.46449988865172        0.02964759910135
C           -0.91643187975367       -2.10436475190264       -0.13115067694317
C           -2.22692242279348       -1.94078154538488       -0.68914052919498
N           -3.02532941021645       -0.94226393291580       -0.61115003208579
C           -2.79398210119522        0.25225765484014       -0.02853727986483
N           -3.92314815999926        0.88773638494023        0.34254779031335
H           -3.90056523632935        1.83773286157102        0.67251857757950
H           -4.80264135372138        0.45396132075391        0.12183265805570
C           -1.54566533767009        0.88244805828273        0.09639072631349
C           -1.61893140777902        2.22201896818858        0.53739940141754
N           -1.78837112175004        3.26220032001478        0.99576516101726
C           -0.23566999350819        0.32206326094328       -0.08100980005409
C            0.84052535524885        1.17851187179354       -0.27405462080944
C            0.67749623716809        2.51931398692854       -0.68230682774842
N            0.63293754611170        3.58467981813506       -1.10709221781080
C            2.16868095618597        0.71284859903216       -0.11547964580808
C            2.38311327722656       -0.67329786987304        0.32833337502488
N            3.72179761117232       -0.90970853205063        0.49823289665155
C            4.31696907256166        0.21062749955264        0.18160788047343
C            3.41825813804809        1.25972487946877       -0.21685230935401
H            3.69146900584362        2.25248629586464       -0.51411471460207
H            5.38887797978727        0.29042061750418        0.23298751171997
C            1.34363463904195       -1.53814695299251        0.44840872652603
C            0.02191759469795       -1.11148017707722        0.11689960655646
H            1.51807616626697       -2.57396042247273        0.69765638611996
H           -2.63367489314626       -2.80485997550993       -1.20704762270191
