24
 energy: -44.557102537768 gnorm: 0.000570730853 xtb: 6.6.1 (8d0f1dd)
N           -1.94959934275405       -2.92705236103358       -1.15070137383139
C           -1.86183211797648       -1.87916970494128       -0.69478253721534
C           -1.82501310881508       -0.54326138004206       -0.21162195410172
C           -3.05481120598445        0.09693760331877       -0.23827249714450
C           -3.35947784646211        1.37424091547018        0.24181034499086
C           -2.43393854180063        2.32829790729682        0.61797571306160
N           -1.16307030718610        2.36491192886507        0.27314272519988
C           -0.31240267300260        1.44652511990514       -0.03888433791963
N            0.89593001778527        1.91723186436924       -0.44295270697876
C            1.91788692752489        1.13566053620601       -0.33844108822826
C            1.85565091098989       -0.25837011188778        0.18875478638603
C            3.13525067155529       -0.71052546629335        0.29663899869480
C            4.01292245762908        0.33388362046070       -0.17240118391637
C            3.29928633353527        1.42639332491564       -0.56602570905552
H            3.67229388328226        2.35463235533567       -0.94973671367232
H            5.08386498185184        0.23818493446513       -0.20045806084706
H            3.45455449394783       -1.67131771542803        0.65436702530498
C            0.56788085737704       -0.82705495235896        0.33550009723733
C            0.45924937442149       -2.18239679976195        0.71697036776457
N            0.42795600008687       -3.26172267755081        1.10402562877822
C           -0.53893842572758       -0.01854186153111        0.11356221522659
H           -2.77339146713205        3.22788751992548        1.11826085591316
H           -4.40654875623479        1.63371683266972        0.31630336082672
H           -3.88722627481241       -0.50584769487741       -0.58065043187397
