35
 energy: -60.702496926152 gnorm: 0.000771874168 xtb: 6.6.1 (8d0f1dd)
N            5.36735800439896        1.45956311601449       -0.14229089000440
C            4.39210186460150        0.85084486461221       -0.04890856521204
C            3.20276135966292        0.11931882157331        0.04954938114249
C            3.27470877173735       -1.14179256181680        0.65060664296716
N            2.43311762518154       -2.11337341742616        0.51834611988464
C            1.22579540224376       -2.11366125623912       -0.05857897369944
N            0.91752272169475       -3.34972775728165       -0.55552025848467
H            1.69637012976691       -3.98459589028611       -0.63104575527636
H            0.17745368209239       -3.42676763710863       -1.23324924097149
C            0.25830656016095       -1.08765359066481       -0.03051189930931
C           -1.11525189786511       -1.42995912972839       -0.01245880476196
N           -1.56973786244452       -2.73055472889007        0.11400259817975
H           -2.51894934769463       -2.76554045818932        0.46192923512415
H           -0.94566136862835       -3.37117686072483        0.58321540589208
C           -2.06973933912389       -0.41937523338379       -0.06473292630510
C           -1.67914046094071        0.97027205963561       -0.00667866153946
C           -2.88955218369517        1.68011897905323        0.08844753467165
N           -3.94703048406779        0.85267424308162        0.07551912608819
C           -3.47502131499933       -0.40089895865686       -0.00310491364592
N           -4.33702618788254       -1.49736904934727        0.00045517385829
H           -5.29791719204967       -1.17747931941254        0.01497812560778
H           -4.18199157358974       -2.13164896102718       -0.77429599502498
N           -3.05933484938927        3.06157293731547        0.19657430534150
H           -2.61257284836463        3.58034580509345       -0.55091805407530
H           -4.04828740008719        3.27842830866447        0.23509974075333
C           -0.33782179829211        1.33464807244078        0.02491176623499
N           -0.05035064867232        2.68764789879881        0.20545659748934
H           -0.84363776399259        3.17791570272102        0.59894998829984
H            0.80358739073819        2.87998395504665        0.71101661755091
C            0.66397340652079        0.34151418631814       -0.08202550000766
C            1.99243410269109        0.75686235083934       -0.36821997274319
N            2.17309598757319        1.92971520759958       -1.01719861628066
H            3.10639079466824        2.27504171434960       -1.16731112378239
H            1.38222461667562        2.47313406288910       -1.31763408068142
H            4.17799280106297       -1.39359935657729        1.19848775200646
