27
 energy: -47.741714401992 gnorm: 0.000830506284 xtb: 6.6.1 (8d0f1dd)
N           -2.45953739303467       -2.94753624694386       -0.87376514574871
C           -2.24537660691812       -1.89535566495339       -0.46933952874220
C           -2.15092948262603       -0.52335448805215       -0.10653811149809
C           -3.41809369639469        0.05639859566725       -0.01193637608149
C           -3.76670836171973        1.37483145144721        0.21923119079502
C           -2.92168011368392        2.47494362139056        0.25929670184553
C           -1.55237424820445        2.50444803326818        0.08714234677371
C           -0.59118702718094        1.48683399032530       -0.02092881934395
N            0.63880358487362        1.97793398024470       -0.15338274484133
C            1.67855133664142        1.16574826375819       -0.14029018636711
C            1.54405339750174       -0.29988178581463        0.07679966894627
C            2.80773349444586       -0.83492615530770        0.13124965172960
C            3.72624905827857        0.23032555261647       -0.07294403187808
N            5.06072206825729        0.09377685129654       -0.10113143163366
H            5.48197181365544       -0.80984585417530        0.02205118865575
H            5.65152058272464        0.89045997393092       -0.25960734484636
C            3.02664973784150        1.44932706852076       -0.23423162968889
H            3.46941080286368        2.41248486685629       -0.39290245232877
H            3.06790883123903       -1.86469278362538        0.28694862513191
C            0.24790707599808       -0.82421912118323        0.16010437403057
C            0.14888373659951       -2.20027421357353        0.45979689653248
N            0.20971559625622       -3.29548396784269        0.80021055459729
C           -0.86020265256655        0.03566425853426        0.03699041306101
H           -1.09208586288509        3.48507749423734        0.06839227263130
H           -3.39904622572791        3.43559078280143        0.40417759334909
H           -4.82443942636021        1.57189763640828        0.33569522171266
H           -4.23979662577662       -0.64219205923389       -0.12174771909266
