22
 energy: -40.318004509582 gnorm: 0.000801174687 xtb: 6.6.1 (8d0f1dd)
N           -2.10131112089411       -3.34761259701227        0.25021337777799
C           -1.95228822208870       -2.21386495055385        0.17007018803661
C           -1.81462717168357       -0.80293641427218        0.06437922864450
C           -3.00897885868742       -0.10832684973165        0.28429700593009
C           -3.26142890059528        1.23240033930360        0.05251554479102
C           -2.31265576028991        2.17868834786634       -0.34184011074802
N           -1.02174694223802        2.11484820411416       -0.18213975003805
C           -0.18618362524018        1.13627089401136        0.03675367571860
N            1.04323497146924        1.53158070434786        0.37052030786773
C            2.02172634135522        0.67373153333681        0.28629391210418
N            3.31198757760530        0.90916302285410        0.54433882867135
C            3.95341513750067       -0.21578135450291        0.22730295465900
C            3.12094661594408       -1.25455459145675       -0.23733355948668
C            1.84113960768366       -0.73585648704156       -0.20932150436499
C            0.54693083294287       -1.19843146840439       -0.37763122752557
C           -0.50837335682767       -0.31666071889166       -0.16074543830609
H            0.35213460537008       -2.23868870517544       -0.60657286347859
H            3.43435697026479       -2.23443909201032       -0.53898913267585
H            5.02284840616153       -0.26322237356998        0.34266373887136
H           -2.66371871407733        3.13752421566765       -0.70912343153338
H           -4.28277619251649        1.57112382396801        0.16253283538834
H           -3.85423418375833       -0.72251638154660        0.57296733909662
