27
 energy: -52.540905815917 gnorm: 0.000908807327 xtb: 6.6.1 (8d0f1dd)
N           -3.16266716686472       -3.54801934119471       -0.00574526404896
C           -2.78636529047505       -2.46513066726406       -0.00417167020318
C           -2.41531208492566       -1.09403100114993       -0.00180408635465
C           -3.53928738069908       -0.25519581665824       -0.00396538344806
N           -3.65990622259275        1.04769155372937        0.00043121908519
C           -2.68056046467087        1.94113102263435        0.00521172037467
N           -3.10888799452880        3.21858252783157        0.01236769708388
H           -2.47183834372970        3.99472598482140        0.01516365488926
H           -4.10076530928035        3.38330870187829        0.01359572814521
C           -1.27455638637548        1.73463579551851        0.00205649872714
C           -0.50885374126589        0.58836463986411        0.00005242534990
C            0.90999886977466        0.78384739781223       -0.00174300208633
C            1.44328855768646        2.09133892584789       -0.00531891031929
N            1.86407155124697        3.15910108534466       -0.00502579596872
C            1.77107568389145       -0.29618329646999        0.00007131244121
C            1.22525647191806       -1.66775983097190        0.00325687308631
N            2.20789340021025       -2.56669067951245        0.00509408621195
C            3.35240413416919       -1.87061898393327        0.00319381068883
C            3.16808613925208       -0.47560668058883        0.00004341074921
C            4.16846262707413        0.49904075292864       -0.00259556480873
N            5.00612571815646        1.28435132748150       -0.00303271748714
H            4.29690379477685       -2.38528778570398        0.00402771419850
C           -0.14154404205882       -1.86896412730304        0.00336534859430
C           -1.03051410417611       -0.79443966315669        0.00112218199699
H           -0.51775132882178       -2.88059341766256        0.00471178766462
H           -0.70785494040169        2.66048620672765        0.00194053383466
H           -4.50020616448981       -0.76245067855055       -0.00886410229679
