34
 energy: -57.790456125533 gnorm: 0.000913138532 xtb: 6.6.1 (8d0f1dd)
N           -5.82766823402993       -1.56425836641850        0.47343378972208
C           -4.88315673252437       -0.94840081087067        0.23793396080314
C           -3.72216709535480       -0.20577113632447       -0.04213795670999
C           -3.95326240885246        1.04929962975775       -0.68432608505071
C           -3.09444470253463        2.08853468977567       -0.79616917117853
C           -1.75350028782992        2.16515773564745       -0.33754279750200
C           -0.88740404125071        1.16910004856243        0.02668450571501
C            0.48751421977525        1.56566668775059        0.30769140318313
N            0.76460078900138        2.85022415883061        0.69428052254227
H            0.01709228654558        3.37068039855309        1.12435154911891
H            1.67150395110059        2.98377865472368        1.11405234699318
C            1.49356208692819        0.65823029220611        0.08531343662435
C            1.19006366491729       -0.73607902116115       -0.17654448784872
C            2.38964846513782       -1.42499398628390       -0.28470280302543
N            2.58082789171470       -2.77585889122091       -0.43714383956537
H            3.50579766308611       -3.05857400006096       -0.72154881171443
H            1.82962061820336       -3.28867852726257       -0.86897470760887
C            3.45777112581015       -0.47698278362756       -0.11679107905696
C            4.81415165966251       -0.77676663994401       -0.20660381643719
N            5.93680177899106       -1.01609829873941       -0.30231261784198
C            2.91787657254308        0.78986539732699        0.10014949262205
N            3.62850101452423        1.95809296738959        0.30894089753425
H            4.62599294331886        1.84130043461130        0.18562896573782
H            3.27439864941807        2.76468598169076       -0.18597146627064
C           -0.14468712303113       -1.16374129386517       -0.11341521653277
C           -1.17203416841511       -0.26467796520623        0.02825304881718
C           -2.50634838812880       -0.77828699034014        0.31226069446236
N           -2.54232694891832       -1.96736235315117        0.95635510809596
H           -1.69958841105958       -2.37462409147245        1.31899571326096
H           -3.43046177120169       -2.37225326028964        1.20337581288528
H           -0.34869915396848       -2.22257643676790       -0.19144624975237
H           -1.34231313961389        3.16577214797551       -0.38369597042771
H           -3.47292312568234        2.99231668898077       -1.25563948008890
H           -4.96509463038077        1.18819928412460       -1.04550775230463
