34
 energy: -56.980713148121 gnorm: 0.000454498950 xtb: 6.6.1 (8d0f1dd)
N            5.44666597864456        1.00708030519545       -0.57919603783652
C            4.45780307911081        0.47689336628976       -0.31513316081594
C            3.24183773885447       -0.14155648636661        0.01604251608989
C            3.35766463551620       -1.38964762611752        0.70741444863504
C            2.40938050073471       -2.34518652369340        0.82035870752601
C            1.07554378338280       -2.31138329177781        0.32853113067777
C            0.29527968670817       -1.24505306631426       -0.02901313600382
C           -1.10525893424693       -1.52622803706991       -0.30614881600203
N           -1.50919897158645       -2.78089458261352       -0.67904769221521
H           -2.43919333051176       -2.83009021655720       -1.06511459298859
H           -0.82704298210995       -3.36811659192954       -1.13109987248583
C           -2.01305787377258       -0.52748593393648       -0.07267504215027
C           -1.60327993666072        0.82720591111528        0.21571354169984
C           -2.78314866023482        1.55550537580790        0.28921111940373
N           -3.88377964279263        0.75390049615663        0.13294598562578
C           -3.44964168399748       -0.47211780016888       -0.07507674281021
N           -4.30600459105961       -1.53219055974553       -0.29957638807824
H           -5.27042714049582       -1.25633395442269       -0.16716269139362
H           -4.07482503534359       -2.37009269235928        0.21733107830392
N           -2.96774232662540        2.90760427825578        0.52874764216619
H           -3.94384455321226        3.15481167693370        0.43406696249782
H           -2.36853055449978        3.51606192073229       -0.01272937964675
C           -0.22742404004981        1.15817333198792        0.21637270069456
N            0.11859561715201        2.50355720845925        0.40131210135580
H            1.03838317889092        2.63867695468445        0.79973620852843
H           -0.58620295738207        2.99369923044364        0.93448543205177
C            0.70735907579791        0.15955848633972        0.00670155795038
C            2.07651657877244        0.51949335802698       -0.34923352899456
N            2.19735614580657        1.62233102981985       -1.12417321945711
H            3.11028768486459        1.93706640354605       -1.40832643295400
H            1.38481478397557        2.16258278759382       -1.36437156793710
H            0.58827350526477       -3.27803695466638        0.34722756941156
H            2.69357802531827       -3.26995714832683        1.30595505369097
H            4.34761741818626       -1.60360804872168        1.09162702155949
