31
 energy: -59.459610051480 gnorm: 0.000772741600 xtb: 6.6.1 (8d0f1dd)
N            3.34247106469482        3.76888302902921        0.85481762269518
C            2.94026037258547        2.71937263313369        0.60482249065240
C            2.50129428105376        1.43459968667272        0.30132626897691
C            3.36439205963821        0.32401058438789        0.06010645485290
N            4.69942305770110        0.35759121898788        0.09509440630386
H            5.22884702905976       -0.47804344532114       -0.09007622652106
H            5.18045882455705        1.21756143084076        0.29815667766649
C            2.57592516651679       -0.82553200316187       -0.22435169033853
C            3.12330657102286       -2.07580729873234       -0.50522570686352
N            3.65727713226605       -3.07052342145225       -0.72689629585033
C            1.22656822340190       -0.44304766577475       -0.16092906535808
C            1.17866375443561        0.98731034391538        0.16903461303194
C           -0.02868136111174        1.65214200483887        0.23248340995024
C           -1.22901908337002        0.97802091986028       -0.00509818965793
N           -2.29871241921473        1.73570842844668       -0.17435977120336
C           -3.56523024284321        1.40368550880413       -0.31571053392524
N           -4.21607513053270        0.32245107383505        0.12778931052129
C           -3.66536434007741       -0.84628352945861        0.36296839043253
N           -4.48507085676965       -1.77259730024166        0.89924175478966
H           -5.43917853141758       -1.51868123494759        1.08419625106902
H           -4.18210620287556       -2.71785680884958        1.04598636184710
C           -2.33431965559538       -1.26985193454148        0.05859329754108
C           -1.21312894085393       -0.49841774284591       -0.13640303476648
C            0.04503593067973       -1.15276709805063       -0.31136542866289
C            0.06728690607066       -2.53570334309679       -0.57200809090992
N            0.04609208746784       -3.66450827773977       -0.78442253033581
H           -2.18254358273052       -2.34375104322084        0.07900910843839
N           -4.35221607836439        2.34688437560422       -0.87220363803523
H           -5.34874656038999        2.23000841950965       -0.83442456359535
H           -3.95675770420700        3.25053124085305       -1.06201981524942
H           -0.06507268149412        2.71849401421461        0.39169034630333
