30
 energy: -50.102233686756 gnorm: 0.000849999195 xtb: 6.6.1 (8d0f1dd)
N           -5.44270840320316       -1.76617071564810        0.36580825563404
C           -4.51257241745021       -1.10452818805084        0.22894159491419
C           -3.37729518836275       -0.28497326146498        0.06568368778240
C           -3.66069833372839        1.11005007285488       -0.21137043211594
C           -2.76435620079175        2.10108654772337       -0.33664134885797
C           -1.33780062771991        2.05946069146582       -0.17969990165269
C           -0.47257652744775        1.01898575849176        0.00784045748972
C           -0.82262055033579       -0.40787271363682        0.02712154768538
C           -2.16321550968038       -0.89675262020462        0.13529713369937
H           -2.21040660965089       -1.97065587782610        0.29422406354478
C            0.16181345135306       -1.37245484334149       -0.01803002929647
C            1.51060478409269       -1.02322934140364       -0.09702294247256
C            1.87795321647667        0.37191118313763       -0.01984347004837
C            3.32053222280974        0.35851204475056       -0.04509894264178
N            4.14559017969121        1.45766857406718        0.00551771009408
H            5.11594509351000        1.20312928911572       -0.12400819772207
H            3.86294941701120        2.23327054602161       -0.57741139923692
N            3.79253237631554       -0.87031700192110       -0.09197177267110
C            2.71782510746060       -1.72075240441944       -0.11106923444926
N            2.92421124025946       -3.06415410682166       -0.20923195684329
H            3.85431008021698       -3.37466714088888        0.01764882203639
H            2.16875648721368       -3.66798727760103        0.06793133005992
C            0.94388569086653        1.35809277429245        0.14731485845986
N            1.33786601857898        2.64813409173406        0.39393546632683
H            0.67267067085197        3.26137904187562        0.83560135972657
H            2.28268401830196        2.74113113107539        0.73464967950026
H           -0.11883085102408       -2.41624173005519        0.00117738015672
H           -0.89605203874705        3.04404284010379       -0.26417285097808
H           -3.15371036419120        3.08790651277180       -0.55636219154333
H           -4.71109147257735        1.34412583820233       -0.33121163908187
