26
 energy: -47.216685007374 gnorm: 0.000782323524 xtb: 6.6.1 (8d0f1dd)
N            4.56765451732433        2.15056987317778        0.71513909270117
C            3.92729776285995        1.22025376654561        0.49748994884612
C            3.17714144568370        0.07520855044189        0.23516192967174
C            1.79606672915501       -0.03596457795062        0.20357173057105
C            1.49020920545202       -1.43837170576171       -0.19694918330149
C            2.72486426447307       -2.11090818419741       -0.36807925343615
C            3.72149612412710       -1.22131286510104       -0.07192263075407
H            4.77790022728538       -1.42511271752777       -0.09061647877444
H            2.83508518908912       -3.14697902662692       -0.62294704066684
N            0.26935553921662       -1.78538528482126       -0.45726073121950
C           -0.73317737948050       -0.91156598983104       -0.25849704257226
C           -1.97590204342431       -1.46413149864211       -0.02260106133682
C           -3.24119576583805       -0.85120473429471        0.14656474178996
N           -4.26613978339199       -1.69138832877283        0.45986242965396
H           -4.12917970223137       -2.68454922618587        0.40290124130368
H           -5.20983234944950       -1.34852752543711        0.45356672096666
C           -3.51984807879688        0.49632162733764        0.00703154877271
C           -2.58777894498641        1.54650421707298       -0.17507070240071
N           -1.28768842694390        1.51639266518785       -0.02548275310081
C           -0.41495518276620        0.52643164745163       -0.04003644516313
N            0.83297916970745        0.86834027782313        0.20710605904536
N           -3.08139308138236        2.78035886406143       -0.44844938651560
H           -2.42625289376206        3.54314826044644       -0.42859619963902
H           -4.06019443639866        2.97953310972945       -0.34834043271321
H           -4.55542493554408        0.79532211816344        0.11025204708893
H           -1.96216125767912       -2.54122391569210        0.10537068817455
