28
 energy: -52.273718542307 gnorm: 0.000740624166 xtb: 6.6.1 (8d0f1dd)
N           -3.08249853943181       -3.29739016129671        0.00128915062184
C           -2.93260615640741       -2.16066337025543        0.00115163603783
C           -2.84166438832284       -0.74217029493655        0.00147098578335
C           -4.10287617340709       -0.13207992876433        0.00222994137832
C           -4.39844870863479        1.21527309824129        0.00258669467207
C           -3.48445812578260        2.27646167915332        0.00224450067357
N           -2.18072430135321        2.28410882774802        0.00164592183075
C           -1.29456628769202        1.29424998349503        0.00109380022791
C            0.02684533333539        1.74995754136175        0.00058357013426
C            1.09290861363613        0.87382768519721       -0.00010723917706
C            0.84201538058141       -0.56705161214229       -0.00036207406748
C            2.08382980503388       -1.21843085248720       -0.00129141777294
C            2.33509595329526       -2.58916121352352       -0.00242501082421
N            2.58997879350422       -3.71063393921597       -0.00092357026603
C            3.10076503573836       -0.21843464243262       -0.00141411296783
N            4.41624037862587       -0.44969612495593       -0.00220543375271
H            4.76400313304202       -1.39404833968758       -0.00267878000525
H            5.06561025549959        0.31902553323346       -0.00234695530915
C            2.48337717204672        1.06606077527040       -0.00073121052552
C            3.18116405220407        2.27193872864361       -0.00080629923139
N            3.79627921983105        3.24386632451475       -0.00116117470216
C           -0.45665748890021       -1.04260075433344        0.00015268313455
C           -1.54808766506644       -0.17393819634224        0.00092151070441
H           -0.62403533224558       -2.11098979705197       -0.00001276978613
H            0.18495182987772        2.81754455328325        0.00071327403192
H           -3.90869984597970        3.27706033445130        0.00251063874590
H           -5.44577679199758        1.48609282246598        0.00315709178930
H           -4.94291568113043       -0.81705817693359        0.00253846742186
