25
 energy: -43.510229568032 gnorm: 0.000414716247 xtb: 6.6.1 (8d0f1dd)
N           -2.22240053510866       -3.42806773279430       -0.00245529830553
C           -2.11822937940554       -2.28543917282395       -0.00083292841443
C           -2.09085699641902       -0.86434192185153       -0.00046895242004
C           -3.38849844004523       -0.32766233381261        0.00193678192931
C           -3.78916634802637        0.98666269060961        0.00322040216384
C           -2.97826452625884        2.12569336725226        0.00245928276871
C           -1.61060838809356        2.19964191311002        0.00025676066320
C           -0.59835892335852        1.20806060968176       -0.00192599707592
N            0.60952431029087        1.74047767772833       -0.00390981891527
C            1.67529368989937        0.94046477763553       -0.00623205906970
C            1.55954802933303       -0.53488183160172       -0.00632789999149
N            2.77010038394207       -1.10847404432356       -0.00955016143178
C            3.64430267896170       -0.08759414534932       -0.01167890650971
N            4.96235050165143       -0.32215965492468       -0.01146268707071
H            5.27925964999226       -1.27550981151963       -0.02471897463753
H            5.62342366778706        0.43234808471060       -0.03146213083349
C            3.02328062217492        1.20146212167144       -0.00960101512028
H            3.52659963748027        2.14654743693384       -0.01056191499348
C            0.30514944436946       -1.09199825776856       -0.00435612614117
C           -0.82342883721631       -0.25066699931557       -0.00219945935513
H            0.18480776995707       -2.16554419006179       -0.00460504342384
H           -1.17993999257053        3.19389521514942        0.00003339861063
H           -3.50420597491314        3.07214055387131        0.00376932771661
H           -4.85738129662397        1.16087591731515        0.00504055962933
H           -4.17871326579982       -1.07033864712205        0.00286261852788
