29
 energy: -51.198435872221 gnorm: 0.000580862434 xtb: 6.6.1 (8d0f1dd)
N           -5.12810271618763       -2.63423375777013       -0.33826877863467
C           -4.35720263087309       -1.78667347282373       -0.26318599576420
C           -3.40716052180051       -0.74901705249089       -0.15767420890139
C           -3.80624816727300        0.52720530736821       -0.53466043298582
N           -3.21434294722725        1.66042397601476       -0.23164276992203
C           -1.99899586580604        1.88922905909659        0.18899580036840
N           -1.81771606469264        3.06681800943713        0.80587767430018
H           -0.91220190611266        3.34480978615488        1.13952395624787
H           -2.61424766644111        3.66404529085836        0.95215851438375
C           -0.82040497623169        1.05467608392855       -0.01006822848135
C            0.40191775209456        1.64769357454308       -0.21294395554199
C            1.57956579502561        0.88859055938245       -0.21576647484687
C            1.48925061236643       -0.53276307401064        0.11944901822955
C            2.83197831188755       -1.04760535506022        0.11693001929667
N            3.20075185375376       -2.31755515118092        0.45152586586112
H            2.50894830636218       -3.04388747859227        0.37236388587070
H            4.14955815752319       -2.58473867480320        0.24247758298521
C            3.67832841620788        0.01318945347756       -0.20245046026012
C            5.06545158257980       -0.08625105670822       -0.32187881022026
N            6.20558860718647       -0.20148593208170       -0.42354546442614
C            2.90440765687474        1.19888348548398       -0.40907501127965
H            3.31823255846856        2.15480949105693       -0.67070800577484
C            0.28538048862206       -1.11953256347661        0.34052305371264
C           -0.92936676283896       -0.38485614149137        0.19329566607851
C           -2.09964786203875       -1.12009232630519        0.23524924074377
H           -1.98835516396140       -2.17329211571465        0.47000553363644
H            0.21046325456054       -2.17598407343229        0.56330461457523
H            0.46852064764116        2.71195504895662       -0.39450818877809
H           -4.76241188466957        0.64655728087857       -1.03313269227485
