26
 energy: -48.020942523781 gnorm: 0.000583033372 xtb: 6.6.1 (8d0f1dd)
N            1.80548179939610        4.02825507077343       -0.00258207403765
C            1.71453717495793        2.88431864071395       -0.00048153129643
C            1.68264260641875        1.46681020842317       -0.00005795823542
C            2.95338584297000        0.91750108749302       -0.00025031446047
N            3.38275548300188       -0.33593772291057        0.00124840215085
C            2.63766910461839       -1.41725647867546        0.00210505536466
N            3.33211559051732       -2.57262740012764        0.00431938356673
H            2.87804418294795       -3.46802580711473        0.00493175868112
H            4.33607121821129       -2.51893581355444        0.00525277375006
C            1.20900495704673       -1.54555344174230        0.00062963827030
C            0.20885711341976       -0.61011950128224        0.00017850118320
C           -1.13847431869181       -1.13789887010814       -0.00068671670215
C           -1.35163379718730       -2.53349143242033       -0.00328640165141
N           -1.50463983040360       -3.67092591871292       -0.00145306143946
C           -2.21792167412224       -0.29345888831679        0.00025682661172
C           -2.01908208682456        1.16645799923317        0.00161610787342
C           -3.29017888307872        1.69237777240650        0.00225514780443
C           -4.16343655684626        0.56719940475725        0.00124535995323
N           -3.54236013755390       -0.59499840285711        0.00000360276799
H           -5.23908716753962        0.60062625853052        0.00137873302377
H           -3.58392288204056        2.72296182494549        0.00323770800905
C           -0.71959556526124        1.67837973509691        0.00166534209487
C            0.38348396134205        0.84974592465855        0.00080537944173
H           -0.58066058426498        2.74993389612553        0.00222970523531
H            0.87761111248207       -2.57870672328164        0.00018512222805
H            3.77644535168309        1.62717641124694       -0.00139870088770
