31
 energy: -53.829505893042 gnorm: 0.000239172196 xtb: 6.6.1 (8d0f1dd)
N           -5.01406415888544       -1.76130036565091       -0.76723830714042
C           -4.13113994335084       -1.06033380569315       -0.53303387393552
C           -3.04627144483393       -0.21856014305856       -0.23455678803256
C           -3.18161106071469        1.10999791874342       -0.56816186159439
N           -2.45043511919026        2.12637413681581       -0.14751847805885
C           -1.22574647273349        2.09537181040546        0.30953235246949
N           -0.84262872402315        3.20105656956334        0.97545171111294
H            0.07997628922081        3.28073283376579        1.36241130124775
H           -1.51688524173938        3.93361184994522        1.11609826659919
C           -0.22438838223429        1.06854925411715        0.09005749416719
C            1.08377446350761        1.47157451488945       -0.08238089064991
C            2.11992577141343        0.54462603535627       -0.13545997764328
C            1.79708011926060       -0.86286984594972        0.07451559687331
C            3.06219773107462       -1.53016975601868       -0.02649454076764
N            3.29530202063056       -2.86610731139112        0.17449969254091
H            2.55343830992172       -3.49285099368145       -0.09443613671330
H            4.21932883461346       -3.16211094128771       -0.09977827802432
N            4.04287655967765       -0.67246903633415       -0.26178288041891
C            3.49671776063407        0.57613210962636       -0.33484827957830
N            4.31284067323695        1.67086708501915       -0.51398451867265
H            5.23555098244170        1.42430360854077       -0.83852461633566
H            3.89620926376238        2.44798633831434       -1.00319095872439
C            0.51529306962649       -1.26833864708365        0.28028061499917
C           -0.56561620661065       -0.34927714692890        0.23966845933572
C           -1.87235509068321       -0.85159300038537        0.33641353738875
N           -2.10953733357981       -2.07527880523324        0.88413048897619
H           -3.00297323193409       -2.51232273395230        0.73057433348763
H           -1.35321677882395       -2.64632301510192        1.21369937708105
H            0.31485466860473       -2.32801591654224        0.37346218608237
H            1.30493560135606        2.52319443699179       -0.21347929409615
H           -4.06480060464768        1.40785805250464       -1.12417812937580
