27
 energy: -47.743144753582 gnorm: 0.000710933997 xtb: 6.6.1 (8d0f1dd)
N           -1.73130782713064       -4.09436144483449        0.00136020754736
C           -1.75584144664692       -2.94725096225493        0.00015621371360
C           -1.87320659817500       -1.53058555010430        0.00018587630904
C           -3.20805510881595       -1.12363214134536       -0.00210089478663
C           -3.73955874412572        0.15541561963912       -0.00312197697789
C           -3.05686539847585        1.35929752851613       -0.00216644548057
C           -1.68148178965848        1.57206740375162        0.00011009307702
C           -1.29970080505612        2.94271083917420       -0.00072926003264
N           -1.08706649713468        4.06938626273451        0.00239430473239
C           -0.58004320743659        0.68192755992602        0.00205750267846
N            0.57473273847369        1.32673470689024        0.00384137978617
C            1.71202030456873        0.64813875271551        0.00595575340490
C            1.74768627868839       -0.83955341176082        0.00626436698342
C            3.07516717937736       -1.22063260654598        0.00888876647585
C            3.85565171183882       -0.04064648505101        0.01033614067284
N            5.19758029993348        0.00018634334861        0.01226115513374
H            5.73289255619530       -0.84968718943709        0.01676477655921
H            5.67826360293045        0.88198647835723        0.01635007396231
C            3.01065775689304        1.10197272249301        0.00838938817976
H            3.33473665072929        2.12363483225967        0.00886969290029
H            3.45973733094159       -2.22300409978022        0.00979572045360
C            0.53726380242095       -1.50996309392727        0.00421420941589
C           -0.66334528635292       -0.79629240389445        0.00210500021847
H            0.51732400756328       -2.59166427968679        0.00431840928502
H           -3.66108331725110        2.25853305793188       -0.00333222630752
H           -4.81982203387464        0.21868957448892       -0.00495374680627
H           -3.92738710961973       -1.93477881170393       -0.00321558429775
