28
 energy: -56.273006917478 gnorm: 0.000632881798 xtb: 6.6.1 (8d0f1dd)
N           -2.26694322461243       -4.23875770674726        0.00308681663308
C           -2.17155862987186       -3.09562475435815        0.00011522456774
C           -2.13352535021993       -1.67804236499158        0.00085634269504
C           -3.42218546320003       -1.11069110276606        0.00472179863828
N           -3.83948901142466        0.12051013990707        0.00147201377419
C           -3.10640681410632        1.23756885228261       -0.00413581523277
N           -3.85904329950950        2.35343369196113       -0.01132937341771
H           -3.44265610840740        3.26898026051430       -0.01406593498745
H           -4.85844071013312        2.24393507503418       -0.01106100737033
C           -1.69529232846559        1.37189867586260       -0.00163438330888
C           -1.21892694420803        2.70666682161146       -0.00157865013586
N           -0.93872127376745        3.82005954683056       -0.00332227977610
C           -0.66578242096679        0.40195915729095        0.00014625188430
N            0.53705829273741        0.95599085918746        0.00220092831054
C            1.60618807771783        0.17644526057597        0.00065281306160
C            1.51889295256243       -1.29971475352834       -0.00408253109043
N            2.73381749895490       -1.86184543842002       -0.00581815828525
C            3.60388591145106       -0.84414097939934       -0.00220509706352
N            4.91797398858639       -1.03970244624144       -0.00252809283805
H            5.27108936550423       -1.98187723366115       -0.00561313009652
H            5.54967658273562       -0.25627965939951        0.00037833512238
C            2.96262020519375        0.45900675648282        0.00215288432035
C            3.65760568158064        1.66282372932014        0.00678180390160
N            4.30830676850257        2.61132114375430        0.00923137190894
C            0.27136195006686       -1.88023864848201       -0.00490303877332
C           -0.86628340320922       -1.05936855313962       -0.00177630336603
H            0.16845631470739       -2.95522267526526       -0.00708659124884
H           -4.23971244649869       -1.82824971381575        0.01023362357302
