26
 energy: -48.014028698676 gnorm: 0.000448304091 xtb: 6.6.1 (8d0f1dd)
N           -4.31440730438263       -2.00730819120693       -0.00203752688028
C           -3.69503770504445       -1.03904638040399       -0.00263481163901
C           -2.95863792463901        0.14760024914958        0.00014528363249
C           -3.47469763325841        1.44527417508060        0.00283081385178
C           -2.43622660334465        2.39557234009041        0.00413360809911
C           -1.23265779250875        1.71715497508503        0.00247506900273
N            0.00655783978947        2.18213254876036        0.00194692461489
C            1.03065419160259        1.35795582796248       -0.00024260300145
N            2.19819836172303        2.00510887441812       -0.00236486858763
C            3.41823411757829        1.57136810155609       -0.00333719056922
C            3.96104501922195        0.27814185622890       -0.00011082066041
C            3.27257546549494       -0.92682769602623        0.00215364145743
N            3.97705923224530       -2.08279967542635        0.00512750549078
H            4.98085938188981       -2.06686796207076        0.00612203601518
H            3.51020171724183       -2.97192800423123        0.00635537897341
C            1.85628030741793       -1.06184771092496        0.00065387868912
C            0.85546608534280       -0.12638894749931       -0.00096117750692
C           -0.49994784376427       -0.62459889288700       -0.00176778841025
C           -0.73501441780102       -2.01974839839218       -0.00402426658189
N           -0.89427063890038       -3.15605328191898       -0.00542323586276
C           -1.54326857231768        0.26382626087715        0.00008682601325
H            1.52295600146595       -2.09656493618955        0.00131986663819
H            5.04194840274870        0.21617788396609        0.00046451955281
H            4.14744763919325        2.37831910388525       -0.00637832417714
H           -2.55959857572760        3.46034537411490        0.00591751847289
H           -4.52517797206691        1.67822514760247        0.00346803547287
