27
 energy: -46.943013269036 gnorm: 0.000778977646 xtb: 6.6.1 (8d0f1dd)
N           -1.14002008021838       -3.83159870545917        0.02855960206357
C           -1.30969828576534       -2.69703063930797        0.02184687842414
C           -1.60856875440635       -1.31149342929677        0.01530961743409
C           -2.96610029006546       -1.01639368637698        0.01833884348630
N           -3.62022117939702        0.12677433320948       -0.00764319190533
C           -3.09188506794463        1.33986829634171       -0.01125879917608
N           -4.02640127825934        2.32708273356186       -0.01952569537203
H           -3.77257518645836        3.28795719400249       -0.15362242621988
H           -4.98727568937840        2.05074692998046       -0.11822888187682
C           -1.73711412520672        1.74840769564110        0.02715262827106
C           -0.56239672798254        1.02312917214994        0.03575175296601
C            0.65171085579525        1.74815008139731        0.06667073502132
C            1.84941284790477        1.08429396522484        0.05128942932047
C            1.81885223693328       -0.40192831498836       -0.00072559784470
N            0.67656787893801       -1.09490428499241       -0.01416362401626
C           -0.46702549941609       -0.45665926927009        0.00761418239254
C            3.10956291390362       -0.84574614082815       -0.02071761182578
C            3.96317934554428        0.31238912124436        0.02272490435182
N            5.30897621364571        0.24370736550804        0.00005199297836
H            5.86186720055208        1.07524704539328        0.10659197913381
H            5.76596745931551       -0.64919709668600        0.04452597467934
C            3.19298834370168        1.47172697991005        0.06557990146202
H            3.56595999631849        2.47791165410039        0.10347864848996
H            3.44546415716255       -1.86324949389793       -0.05993467802392
H            0.61233745620073        2.83027959081650        0.09538997031138
H           -1.60764294453806        2.82698118595400        0.04713769386348
H           -3.63544541027928       -1.87313864943199        0.03199533051115
