27
 energy: -52.527615296661 gnorm: 0.000840634766 xtb: 6.6.1 (8d0f1dd)
N           -5.36546806584445       -1.11069876433764       -0.55051392187223
C           -4.23821544782767       -1.00760846064728       -0.36198064202395
C           -2.84753162708026       -0.87650048012357       -0.13259863570237
C           -2.15302753970208       -2.07924615866673        0.01047421092161
C           -0.80644067621070       -2.29454302577923        0.17989433256371
C            0.28506560883004       -1.41281817381177        0.10313814461570
N            1.45417247708770       -2.03549365505286        0.14532321921508
C            2.58404389762134       -1.37633099368202        0.12597316804556
C            2.62503271420688        0.10978875368612        0.00888953602283
C            3.97386265621219        0.41527213603332       -0.14205739965962
C            4.63671929047779       -0.80639418029755       -0.03522661883921
N            3.81060073881493       -1.86495374192815        0.07011630646704
H            5.69972642504490       -0.96940940132674       -0.04685834588240
H            4.41264078677983        1.38676079167861       -0.25417383920819
C            1.40839793815607        0.76795241869210       -0.12709002501929
C            1.43816767310748        2.11256038743658       -0.56197375521716
N            1.54606259934026        3.16562946988473       -1.00446647394659
C            0.19044987293391        0.05358206031515        0.00780618939770
C           -0.99332323853251        0.79535886291332        0.19424871088603
C           -0.82477575883041        2.12221554043596        0.67107035287349
N           -0.78985243610007        3.15255584718538        1.17723824319712
C           -2.36041638789903        0.44312719565705        0.02936000153740
N           -3.26850729332796        1.44238763300438        0.04347280585496
H           -2.98092770269281        2.39894588027555        0.16561490863234
H           -4.25070627968451        1.23489152572395       -0.02728197926713
H           -0.49432221958114       -3.32023372540755        0.32666795790222
H           -2.77549905779923       -2.96547981196297       -0.02187757479494
