27
 energy: -52.529681719832 gnorm: 0.000962735588 xtb: 6.6.1 (8d0f1dd)
N           -4.39216751811990       -1.94667138821789        0.66012589878849
C           -3.78479831333619       -1.00966302378557        0.38882864551046
C           -3.09247477851637        0.15567907100271        0.05362193496880
C           -3.73253823939761        1.39212360992275       -0.34520474357284
C           -2.80033059182165        2.35299452820311       -0.60480638994943
C           -1.51803445829391        1.78102186368312       -0.37262803387352
N           -0.35384481879845        2.35048041668390       -0.39871104385196
C            0.74350327955695        1.62187217761095       -0.07984141838531
C            1.84373811740438        2.39873075089880        0.21565094057697
C            3.09426064148832        1.96959108436301        0.70583560461073
N            3.67545205157524        0.82611155106377        0.56369335388226
C            3.19378055207425       -0.28519201277222       -0.01124785539868
N            4.15641323733549       -1.13702858285754       -0.41460079185786
H            3.93343571408616       -2.06187794722125       -0.74165021807823
H            5.11149176978736       -0.88910835286750       -0.22117104179534
C            1.83281862015973       -0.66513073479117       -0.09826583118001
C            1.64819352222197       -2.01452867900289       -0.47611486760884
N            1.63865239854581       -3.08562843661669       -0.89331908375836
C            0.68131216165321        0.15468120654463        0.05310245438864
C           -0.58519452118981       -0.42969398412328        0.19980714603052
C           -0.74626297622787       -1.78280954808495        0.57491044180274
N           -0.92724699266268       -2.84193444083180        0.97655214472564
C           -1.72871542231578        0.36751347166345        0.02491349142296
H            3.69854208279423        2.70675170299897        1.22560443116100
H            1.67184889823552        3.46549478129865        0.16079950135459
H           -2.97361859518079        3.36447163368813       -0.91370549573057
H           -4.80026503505655        1.50098155934706       -0.41551854128285
