27
 energy: -52.539191564999 gnorm: 0.000889404799 xtb: 6.6.1 (8d0f1dd)
N           -5.93262528521385       -0.77204517923476       -0.28495762586151
C           -4.79111499427122       -0.73292675614741       -0.19226491352534
C           -3.37767191188312       -0.69717153649280       -0.08377566449532
C           -2.72172219928608       -1.94283998681455       -0.13532107608715
C           -1.38512634107632       -2.19044209837950       -0.00951396124079
C           -0.25515821991768       -1.33491658665358        0.06690050043687
N            0.86676211609161       -2.01870932526092        0.18239688983202
C            2.03228973137159       -1.37761483005951        0.15843145955455
C            2.12721591734083        0.08267184776567       -0.07521068551035
N            3.39428382582556        0.47292072347027       -0.16220308554782
C            4.12667315189213       -0.64621963035776        0.02844788573459
N            5.45684627705126       -0.58644639286546        0.01857451525638
H            5.89591353924629        0.30687811317347       -0.12832410516639
H            6.01673175554222       -1.40967071886673        0.15230141489723
C            3.33015805216128       -1.82049110272396        0.21673412517546
H            3.69208751911226       -2.81584791006955        0.37001863036161
C            0.94830108398471        0.81219217513254       -0.17299270914841
C            1.04934209784897        2.17580348978447       -0.53357412571657
N            1.21828105295608        3.23731810195603       -0.93386966947492
C           -0.28772132233657        0.13726406062109       -0.00776040582574
C           -1.45584135437764        0.90693758153940        0.16644468302818
C           -1.30934486560356        2.27829517799673        0.52101599189107
N           -1.32960876732602        3.34949584238158        0.92929925493929
C           -2.80792650975066        0.54876370732106        0.11858577761896
H           -3.50226328256278        1.37398246213807        0.23795419211832
H           -1.08524910978562       -3.23135079007717        0.00022995241553
H           -3.37002479682390       -2.80314191247000       -0.24780398064836
