28
 energy: -57.839932146019 gnorm: 0.000663937159 xtb: 6.6.1 (8d0f1dd)
N            1.67471564373822        4.26378623431447       -0.12871342719467
C            1.84119439781108        3.13128252950201       -0.13919776977264
C            2.15525874266140        1.74133590469680       -0.16571421509340
C            3.50683159549644        1.45649242459854       -0.42127720515142
C            4.13164683532200        0.23447660203582       -0.35943772304394
C            3.57364239843870       -0.99348070612143        0.00600525222364
C            2.24129346647588       -1.33669239768122        0.17473807082571
C            2.09596393299110       -2.66036603462190        0.68402345776769
N            2.10890792656162       -3.67904923056834        1.20780754871194
C            1.05661829660259       -0.57021956474136       -0.01322453309892
C            1.04631521049397        0.89713133652650       -0.00830633689231
N           -0.09349909560959        1.59765024560949        0.11546174914644
C           -1.23585156644093        0.97858762187904        0.12126410589955
C           -1.36503865857688       -0.48217735814406       -0.04976124854962
C           -2.72577869184665       -0.77124773297721       -0.10976429435542
C           -3.33168281616924       -2.02178708068523       -0.28562075175398
N           -3.85636968726642       -3.03219222097533       -0.42914779900882
C           -3.43816297638883        0.45262037166158        0.05222060301443
C           -2.55337218864347        1.51350773370912        0.18872789011924
C           -2.88580519691591        2.86353558589009        0.36320884330468
N           -3.17501755083592        3.96390263259215        0.50745544931877
H           -4.51079739334437        0.53004085906371        0.06057752425473
C           -0.18454757545690       -1.22920943474209       -0.10418010945344
C           -0.28514710181369       -2.61889735350407       -0.36386727795210
N           -0.43373765870466       -3.71017118785530       -0.67982832765635
H            4.27718560467758       -1.80191154986445        0.16549663026728
H            5.19565417330602        0.22461315114861       -0.55625330825421
H            4.12140479254204        2.31761051756076       -0.65200754012022
