24
 energy: -44.568468008220 gnorm: 0.000882666016 xtb: 6.6.1 (8d0f1dd)
N           -4.35743510295730       -1.48149670256897       -0.00017645857777
C           -3.58614101174854       -0.63041529332879       -0.00037765814097
C           -2.66508665692483        0.42165722415713       -0.00080393741738
C           -2.98962082428223        1.79919372941340       -0.00156073310313
C           -1.83692345207805        2.57663041508310       -0.00185571477003
C           -0.73958234087103        1.71645322226375       -0.00129225917078
N            0.54452411597096        1.99406485907433       -0.00128014136688
C            1.43455396192905        1.00516464706664       -0.00066943423083
C            2.76007504269298        1.45646213769244       -0.00064622128971
C            3.96277935769372        0.75938378175445       -0.00013260917444
N            4.21194933130779       -0.53471061908179        0.00048892216149
C            3.33023941690104       -1.50490756508811        0.00080758591818
C            1.93025841853071       -1.48657960485421        0.00060509512597
C            1.03810104628138       -0.42099715931780       -0.00003814579169
C           -0.35445721672980       -0.71659767811743        0.00002679391539
C           -0.80194017750791       -2.05980723860242        0.00126664930283
N           -1.16521853584019       -3.14715200589388        0.00033615546252
C           -1.26797863674517        0.32323519925433       -0.00061928591426
H            1.46961674730415       -2.46945884298809        0.00100922818725
H            3.78856432196968       -2.48934887565457        0.00131570892420
H            4.86829032430138        1.35832797958553       -0.00024507915019
H            2.83184775567300        2.53743184862358       -0.00111478606971
H           -1.79190398645936        3.64760356733793       -0.00238761583924
H           -3.99757506011076        2.17508654588848       -0.00185261329134
