25
 energy: -47.506631787688 gnorm: 0.000615281051 xtb: 6.6.1 (8d0f1dd)
N           -5.66704981811407       -0.27237787433338       -0.24273479502278
C           -4.51893499225857       -0.30492749113856       -0.17285139420777
C           -3.11915738503597       -0.31499712325679       -0.06181969871896
C           -2.46436629690179       -1.54552427414521       -0.17427244865420
C           -1.12819523854768       -1.82732016018528       -0.03484294124456
C           -0.02996026350948       -0.96089916516082        0.17129861644549
N            1.14628683143427       -1.53759203853527        0.31567927308187
C            2.25104848243040       -0.86189389790049        0.10066939856181
C            3.59362468021655       -1.07560658888617        0.32198872145425
C            4.22906958275387        0.10869733852827       -0.12710285812351
N            5.54485802758719        0.34635125929669       -0.16582999192657
H            6.20532679408528       -0.34088924625286        0.14794477271923
H            5.85977873071949        1.23906961212045       -0.50239458484019
N            3.35958859279547        1.08294186771970       -0.49878395987818
C            2.15521616523381        0.55869020293137       -0.37955683952132
N            0.99473662094085        1.15824892708798       -0.41808797911492
C           -0.11579620486877        0.49473425432112       -0.09501647924607
N           -1.20953155914674        1.21804206152818       -0.10414670678323
C           -2.47503173697668        0.95127189653338        0.10876937326465
N           -3.23656776039386        2.02246939718552        0.41360470095546
H           -2.79544640943090        2.92608062776237        0.40732654725059
H           -4.23996105529040        1.95306676011195        0.42403964203542
H            4.07164220343448       -1.94934316490886        0.71529405565304
H           -0.83313944990630       -2.86159698392786       -0.16034029204946
H           -3.11280378234969       -2.39152103979646       -0.37025067938927
