30
 energy: -60.508912444230 gnorm: 0.000714287481 xtb: 6.6.1 (8d0f1dd)
N           -6.00114720997773       -0.34735302022826        0.58684983105375
C           -4.87375662729409       -0.25439777280551        0.38043511491509
C           -3.49654901963389       -0.15041823267885        0.11571916959010
C           -2.84147981667733       -1.34997042029057       -0.36729645016945
N           -1.57976759082531       -1.63399333910034       -0.29351148118514
C           -0.48479502251770       -0.91506131349835       -0.08037676403267
N            0.59415405440343       -1.62191313496431        0.16384653859842
C            1.77800595500365       -1.02330610749779        0.19255579342296
C            3.04191609312642       -1.56420254158846        0.39774035424038
C            3.35361791892141       -2.88725108924468        0.72016530098223
N            3.63715298460796       -3.96643946655544        0.99237472024195
C            4.00766674550899       -0.51957655203210        0.21243119048278
C            3.37861879798349        0.66254370619767       -0.10997177701156
C            3.98243080252702        1.89844479562637       -0.36235346171935
N            4.47816729487747        2.91373146743552       -0.56793595691545
C            1.96258697708768        0.40450169078212       -0.12466652442651
C            0.85898755952745        1.17548924934820       -0.34280345255967
C            0.94507939345978        2.55253639478845       -0.65171527503244
N            0.96824160780733        3.67204740069552       -0.89926304988735
C           -0.44970676915579        0.56370256658585       -0.19172400741902
C           -1.51935828241045        1.38807971122989       -0.00009220753717
C           -2.88876449501720        1.08972431812120        0.29057829923788
N           -3.63217050396104        2.13204793791969        0.71448969532110
H           -3.22743239441194        3.04611280541769        0.81424967927504
H           -4.61017882672574        2.01088037721855        0.91855904095177
H           -1.30057885947712        2.45251127580183        0.01111973865385
H            5.06986005126691       -0.65678019102633        0.31038120118972
N           -3.62870054535345       -2.31571985638734       -0.87848008002741
H           -4.63153143138588       -2.25344594395210       -0.83765800523802
H           -3.19243519958416       -3.19188775701837       -1.11160273739591
