30
 energy: -60.512550528152 gnorm: 0.000724032474 xtb: 6.6.1 (8d0f1dd)
N           -2.29614019235736       -4.37530008220135       -0.19472866329140
C           -2.20359916030966       -3.23211502054566       -0.20402734326584
C           -2.17815104079384       -1.81635956633449       -0.22755543891540
C           -3.39596747599156       -1.24982270582686       -0.67318944423608
N           -3.85890629982417       -0.05317708161124       -0.51511874719985
C           -3.24317480218678        0.99817255158003        0.03487167889518
N           -4.09080113494205        1.95874658419746        0.44741480297272
H           -3.75552206764160        2.84842189886748        0.77627934242425
H           -5.07353711613028        1.81719448711551        0.28918869807428
C           -1.84439243163600        1.21796345445710        0.10521840751148
C           -1.50236876340620        2.52451395515864        0.52264001613218
N           -1.35808921578113        3.56919218762144        0.97963909264211
C           -0.78534033475675        0.29071952631204       -0.08405081130010
C            0.51211350983771        0.79048038847878       -0.25686247288304
C            0.75218861493605        2.11629267479542       -0.67875203456976
N            1.00895291414055        3.14155732931157       -1.12559487572221
C            1.62431136904079       -0.04707925541462       -0.07190878481436
C            1.41522668128765       -1.44664372744461        0.32752257732951
N            2.58391330794358       -2.07758914370864        0.53011202403860
C            3.53453142205973       -1.18098486373838        0.27454551218428
N            4.83035671210273       -1.45760605765689        0.37340599294951
H            5.51905636618217       -0.75290680559829        0.16854948672797
H            5.11352948984884       -2.38139790673069        0.65359811592783
C            2.99581106326761        0.11694158095697       -0.12089629711522
C            3.79404714705622        1.20897397005219       -0.44467007252434
N            4.53543910576729        2.05096146314929       -0.69731592533735
C            0.14476751195625       -1.96684797583631        0.36506585444256
C           -0.96679149860511       -1.16355058819030        0.05548180949711
H            0.00699798507663       -3.02015566822351        0.55389294061715
H           -4.09255830874218       -1.92955564539080       -1.15604934759211
