32
 energy: -53.544924440826 gnorm: 0.000878128598 xtb: 6.6.1 (8d0f1dd)
N            5.10617450863820        1.71447367608445       -0.41659945268820
C            4.17874434942982        1.03928497179691       -0.30843688058124
C            3.04281746403737        0.22884570213463       -0.16401822082435
C            3.16859839355155       -1.09065508522980       -0.57102361787370
N            2.39978479776903       -2.10863444549425       -0.28124950365903
C            1.16657959958335       -2.09390123143195        0.19859801610594
N            0.79807505377773       -3.27807472435217        0.73844247488688
H            1.50004005749584       -3.99434166010856        0.80914088927266
H           -0.07034071514372       -3.37789918629079        1.23033637500313
C            0.18709337745742       -1.05931815351754        0.07380415256466
C           -1.14851145779288       -1.44131136201528       -0.02350437323270
C           -2.17229687551582       -0.51687903258502       -0.06649068110899
C           -1.83505834060647        0.90592594294604        0.03549382521364
C           -3.05291832120882        1.62697726809804       -0.06123219553605
N           -3.18895829614102        3.00353437963922        0.05401001853965
H           -2.39932235089240        3.53322367941321       -0.28406165290240
H           -4.06977104908048        3.35871030330982       -0.28792904741377
C           -4.08373688159705        0.70455956389662       -0.19280302445308
C           -3.56185976771705       -0.60345072640592       -0.20913320705652
N           -4.31447964837221       -1.76723325627012       -0.26980516654464
H           -5.23750107900919       -1.64384545343161       -0.65864030634164
H           -3.82808266734933       -2.56147266041992       -0.65817144467672
H           -5.12848021369852        0.94901612633513       -0.27951563611591
C           -0.53202590472947        1.29003340267498        0.17916564931195
C            0.53425541430981        0.36288528269508        0.17888343207422
C            1.84330294026467        0.86189517749743        0.32728039674134
N            2.04183979970311        2.09212359179036        0.86365910975823
H            2.95468103120400        2.51139559412614        0.81281739442607
H            1.27357528850922        2.64193025902327        1.20030643661038
H           -0.31142640053265        2.34986946829374        0.20288608482042
H           -1.38351203808426       -2.49288999167551       -0.12756888951908
H            4.08135559546756       -1.36642773421648       -1.09159190158921
