24
 energy: -43.767739493953 gnorm: 0.000536833290 xtb: 6.6.1 (8d0f1dd)
N           -4.08255281248366       -2.53494275885514        0.56597249992157
C           -3.57026052521806       -1.52654229734521        0.36053129706065
C           -2.94939922659669       -0.30037285040822        0.12083530564202
C           -1.56103967714528       -0.08277645235812        0.00307637944195
C           -1.37383663008325        1.37511929548604       -0.27294394960022
C           -2.63465659843044        1.94932130728899       -0.30289435276100
C           -3.57804828711158        0.93416854438716       -0.11190417092856
H           -4.64462567464846        1.07598574495184       -0.10344805673658
H           -2.84842446952898        2.98855506961259       -0.45880645715488
N           -0.16733504874471        1.88930651223746       -0.18189969947554
C            0.89369372362898        1.14273185889294        0.05132810933908
N            2.04638069731405        1.78436252985914        0.09484693513768
C            3.25730248110409        1.35671524503389        0.30714171441535
C            3.80457097902358        0.08281190813571        0.21765868301411
C            3.11662307674595       -1.10763935480466       -0.05873225183305
N            3.85017688627998       -2.21565697595184       -0.32215831402658
H            3.40176920364055       -3.10580490335729       -0.44432319637270
H            4.85177758174192       -2.18790189519138       -0.25881001038701
C            1.72028488350407       -1.26057697484615       -0.05898854820291
C            0.70780523647669       -0.33666978374058        0.17471001556655
N           -0.52600271647358       -0.82670520078376        0.24949369090704
H            1.35538564931751       -2.25156022772413       -0.30634079245953
H            4.88312934047167        0.01593260292083        0.27004705129362
H            3.95815349161457        2.16864259695939        0.48188279039978
