28
 energy: -52.266924229855 gnorm: 0.000346140199 xtb: 6.6.1 (8d0f1dd)
N           -3.22570244532081       -3.52288483837983       -0.00928377025939
C           -2.85276924242187       -2.43761735512093       -0.00633489484733
C           -2.46422744279414       -1.07443737838733       -0.00276686171530
C           -3.55079369908915       -0.22008978338755       -0.00352669461223
N           -3.64463757799501        1.10451675244488        0.00135089026483
C           -2.65016668835188        1.95847167324085        0.00446360207021
N           -3.02245979297251        3.25311865031262        0.01128188732274
H           -2.35371097134059        4.00210861265645        0.01328840804813
H           -4.00645179181288        3.46030154514293        0.01376807592331
C           -1.23205719450468        1.71753658030307        0.00038918204551
C           -0.50961925800766        0.55642762510065       -0.00099995210503
C            0.93494474916808        0.71619238383186       -0.00260324072009
C            1.48398170713032        2.01920761769058       -0.00601463109256
N            1.90432770741980        3.08666812608896       -0.00798794351123
C            1.76061109086086       -0.37279425239779       -0.00017184833140
C            1.19888597194340       -1.72614874585104        0.00302695522455
C            2.25331769942872       -2.61389850741711        0.00510165016486
C            3.46189039007481       -1.87376670680859        0.00333989591884
C            3.19087275552163       -0.51564063975390        0.00015638251637
C            4.12939788881465        0.51853634566026       -0.00198750929958
N            4.92198124995130        1.35063596095082       -0.00430523521678
H            4.44796419280757       -2.30284323492965        0.00432115297049
H            2.18427823978748       -3.68497093662661        0.00760985147661
C           -0.18906765055352       -1.88626236107901        0.00264834022899
C           -1.04819501864786       -0.80678013226993        0.00027329605123
H           -0.59362068860767       -2.88770961058580        0.00392480454152
H           -0.65007905490002        2.63293365714268       -0.00061952706427
H           -4.52864146888831       -0.69375428807155       -0.00751907539297
