35
 energy: -56.692478271107 gnorm: 0.000496915894 xtb: 6.6.1 (8d0f1dd)
N            5.42623906342233        0.98788193622632       -0.57764247892999
C            4.43486698994131        0.46000374964105       -0.31680123959084
C            3.21612669088687       -0.15361342801598        0.01019420100524
C            3.32565966239345       -1.40273265889442        0.69905998963366
C            2.37075682372398       -2.35104614618321        0.81728341576994
C            1.03533208139951       -2.30690763864407        0.32973675739393
C            0.26451120941152       -1.23581191458109       -0.02964283709954
C           -1.13863742008807       -1.50493890881878       -0.30342679807310
N           -1.54163046748657       -2.76368309083969       -0.67781572823593
H           -0.86204162643502       -3.33005275011341       -1.15971235887046
H           -2.47397330149040       -2.80196622191052       -1.06143538880119
C           -2.04884249635378       -0.50941337336513       -0.06867747247127
C           -1.63077658660247        0.84968004893140        0.20360665229597
C           -2.78217837224356        1.62720678056909        0.26977121769213
N           -2.88085710688348        3.00077506206178        0.47987186382544
H           -2.20171487370600        3.54927742980299       -0.02989552229877
H           -3.81982984654431        3.34456064555116        0.32939232275785
C           -3.91094327439668        0.77355404494507        0.11679948554540
C           -3.48615561787194       -0.51539223743380       -0.08204219894503
N           -4.27539424639535       -1.65050471422445       -0.29368394741106
H           -5.26127702946964       -1.44381412271628       -0.18784718902465
H           -4.01230762102004       -2.42861470505787        0.29935565127087
H           -4.93406510368708        1.10687116573436        0.14859349617230
C           -0.25163396600758        1.16436312743365        0.21097645575235
N            0.11284744543517        2.50545723318532        0.42086225023354
H            1.04237599173122        2.61268990980545        0.80614920990231
H           -0.56838736661054        2.97906780395439        0.99799310333246
C            0.68533958191553        0.16497473893752        0.00409182543030
C            2.05283600424078        0.51824226497454       -0.34866271732369
N            2.18387966982455        1.62598111443513       -1.11709818176650
H            3.10025009590073        1.93901596728170       -1.39167734562479
H            1.37656161298205        2.17636878046820       -1.35000508389617
H            0.53861961255387       -3.26864545410115        0.35293051946605
H            2.64974299094343       -3.27705084450141        1.30367811695155
H            4.31550529582679       -1.62400129148092        1.08003926275071
