24
 energy: -43.781212996482 gnorm: 0.000885145326 xtb: 6.6.1 (8d0f1dd)
N           -1.92236013422791       -3.42133606223607       -0.00046674397235
C           -1.90748525416913       -2.27544157854718       -0.00017014084739
C           -2.01245316986249       -0.85667838013213       -0.00043137473775
C           -3.32896625844750       -0.37871741950732       -0.00033790458057
C           -3.77386252330894        0.92222945462914       -0.00036671299825
C           -3.00830662148738        2.09377936060149       -0.00051930815711
C           -1.64525939060261        2.23163599780375       -0.00064697529084
C           -0.60168802050244        1.27609846918112       -0.00066492508565
N            0.60659684595393        1.82895513917433       -0.00080125987625
C            1.65295028439028        1.00438507616513       -0.00086996166421
C            1.46762813481982       -0.47740732363508       -0.00078893321256
N            2.64025419946879       -1.10238808319610       -0.00084896043804
C            3.56392179734332       -0.11917452895454       -0.00095931553559
N            4.86298637628786       -0.42436878490752       -0.00101053280374
H            5.56612431475077        0.29221212627752       -0.00119120667815
H            5.12438431670953       -1.39522960367124       -0.00106376784195
C            3.00950711915919        1.19888364505106       -0.00095586147735
H            3.56098212855743        2.11696395094395       -0.00101427594335
N            0.27361240823125       -1.01788141466034       -0.00063726035036
C           -0.77823826791670       -0.18076582924786       -0.00057512254544
H           -1.25585424299076        3.24316337320224       -0.00075997063223
H           -3.57474056773794        3.01681877373190       -0.00052916754344
H           -4.84762010347819        1.05941288740763       -0.00025848150166
H           -4.08865600384017       -1.15189724217391       -0.00021971708581
