27
 energy: -52.538458570113 gnorm: 0.000841264839 xtb: 6.6.1 (8d0f1dd)
N           -0.64541241393084       -3.57360956261515       -1.13237080057106
C           -1.00166028948987       -2.57158183386366       -0.70317589068176
C           -1.56868533490394       -1.33598668154835       -0.30230909304703
C           -2.95209079862308       -1.35527528298336       -0.26639396107679
N           -3.80765515341269       -0.43698435351591        0.14991602209055
C           -3.58202404615854        0.84356652943803        0.29799040591017
N           -4.58218815026681        1.55241365794069        0.85439023584177
H           -5.39614511207388        1.05609871422250        1.17422199291063
H           -4.51980133372879        2.54530470492862        0.98968946095953
C           -2.44103448473166        1.58027504715188       -0.17206509314669
C           -1.15038668987914        1.14947026907691       -0.32747904904334
C           -0.17960831711740        2.16949468296409       -0.60989882779578
C            1.13772160459304        1.91776218022094       -0.42917034316495
N            2.20015226400776        2.78288823287765       -0.55183695707910
C            3.25439661342792        2.10552722241846       -0.20885082592068
C            2.96938452141299        0.73545341751257        0.16960107066724
C            3.92438218412577       -0.19244565819041        0.58561323156840
N            4.74616873906728       -0.91721276763195        0.92981979100793
C            1.60068736643481        0.60357596353653        0.01825560835876
C            0.66892515501764       -0.45150683318718        0.13459910680455
C            1.14943572034807       -1.70897251719739        0.56722295417149
N            1.58188274055613       -2.66990188352474        1.01893772205530
C           -0.68092043329500       -0.22213651523394       -0.10837575510505
H            4.23330365090269        2.55125491662986       -0.21697180254086
H           -0.51695532993102        3.15853802171127       -0.87854008390620
H           -2.61897577655388        2.63722506437421       -0.33384993538844
H           -3.43320994750845       -2.29275771342298       -0.52737446217443
