26
 energy: -48.024487201861 gnorm: 0.000570222646 xtb: 6.6.1 (8d0f1dd)
N           -3.13598037235096       -3.12874540821021        0.00232664310382
C           -2.88328972484378       -2.01082298967488        0.00109548278318
C           -2.66166815151678       -0.60552946941166        0.00095347802624
C           -3.81898260404692        0.16623114350776       -0.00029326047184
C           -3.94241205188474        1.54582126348748       -0.00108733928308
C           -2.93024487749077        2.49755053352760       -0.00086562414853
C           -1.56250403171314        2.30739224420460        0.00023174840198
C           -0.78798037962860        1.13873897425439        0.00143720524973
N            0.52991498692183        1.38500744818739        0.00224592925970
C            1.34415472484000        0.35051236057589        0.00329053971308
C            0.83180232113383       -1.04705332655107        0.00363091551423
N           -0.47001757715984       -1.28799817233539        0.00284636213841
C           -1.29344304526879       -0.23944276019243        0.00177737708488
C            1.91257702524156       -1.90512273523033        0.00480340603339
C            3.08141897224803       -1.11654394060373        0.00521202933708
N            4.34006077254717       -1.56730116972010        0.00633256360381
H            4.53090341019863       -2.55393670677382        0.00694772508749
H            5.10658680792447       -0.91505118547134        0.00655992335054
C            2.73536403551201        0.27769802771146        0.00432054519048
C            3.66706248823821        1.31194443900841        0.00453794120914
N            4.48478840626905        2.12169165048820        0.00435698219417
H            1.87849430330706       -2.97679908898292        0.00531521837196
H           -0.94694651843123        3.19941159597579        0.00019487596640
H           -3.25727190266217        3.52964567644178       -0.00164625584459
H           -4.95536023665569        1.92748167283135       -0.00195427481127
H           -4.74374724032844       -0.39918896464423       -0.00067319496040
