29
 energy: -55.982236133293 gnorm: 0.000697006106 xtb: 6.6.1 (8d0f1dd)
N           -4.70760282080430       -2.18972473211899       -1.05877662800322
C           -3.92137286762219       -1.42037316695683       -0.72204099646522
C           -3.04415074742858       -0.41726624682763       -0.31657592732410
C           -1.66796557371475       -0.48858698283577       -0.08774878610325
N           -0.87499902972296       -1.53241806224415       -0.07409427743855
C            0.40625326077942       -1.36510995433630        0.24785247848969
N            1.02781747975410       -2.45223989870850        0.61903484712113
C            2.28775855308939       -2.70320792372676        0.85193277965350
C            3.40033389441639       -2.03699138597931        0.36818190019932
C            3.43105574115463       -0.74906429005332       -0.18543375164590
N            4.59533836932067       -0.33621734241770       -0.73747142739600
H            4.71046979272512        0.61220290151128       -1.05257676996339
H            5.39271626280480       -0.94641943473547       -0.73680309368047
C            2.36444673367735        0.19349016525249       -0.09840172206430
C            2.70749305894289        1.48823881067949       -0.55976069287034
N            3.05840707136221        2.48022557530582       -1.02074691540891
C            1.02362334599786       -0.00478502954472        0.27200254595061
C            0.15375809220960        1.08436300318724        0.46728049114760
C            0.60884889213730        2.37144035646373        0.81942876159625
N            0.90105142995137        3.41485839475588        1.19954423704137
C           -1.22387608394682        0.87576275242977        0.31683764399544
C           -2.32835251242682        1.69284903564329        0.36934121259928
C           -3.45211310619408        0.92379772365915       -0.02742262427354
N           -4.70869410076800        1.36207676486488       -0.12147376694321
H           -5.43837848724684        0.73133936429971       -0.41099463923063
H           -4.93963749421743        2.31382788629601        0.10598173877187
H           -2.34989645777119        2.73065711313422        0.64280083184419
H            4.34755947886227       -2.55894581602015        0.41338411558619
H            2.45079492637980       -3.63108187227757        1.39062844371517
