24
 energy: -43.777649950539 gnorm: 0.000748362373 xtb: 6.6.1 (8d0f1dd)
N           -2.35510416008609       -3.38625345855210        0.38614178778751
C           -2.24949418457055       -2.25017470428507        0.26379020839858
C           -2.16078089782555       -0.84365893536385        0.10378121173701
C           -3.36408673282287       -0.17600218867505        0.30770109604885
C           -3.64994184501875        1.16039566165710        0.05728911119451
C           -2.72395023259753        2.11618043278195       -0.34527001388157
N           -1.42610914068256        2.08733656979720       -0.19728276925750
C           -0.56973759979511        1.12804163138903        0.02776270045564
N            0.65566072704734        1.55198666577625        0.34877727465193
C            1.65466254036067        0.71920941150347        0.23440312201401
N            2.93742651274145        0.99580546514008        0.46447245432046
C            3.61448010550982       -0.10965365871070        0.10991252730820
N            4.94387001050751       -0.15024663636366        0.21015336814826
H            5.46248340973014       -0.96633784779439       -0.06052670895597
H            5.42166768213047        0.66539418785189        0.55332171733283
C            2.77263334766008       -1.17565358501691       -0.35355229328423
C            1.49812617301578       -0.68371187933843       -0.27185902429170
C            0.20047014423926       -1.17910262763559       -0.40182786802343
C           -0.85966644781618       -0.32781764650595       -0.15583492504134
H            0.02992371672286       -2.22597330080533       -0.61823570013357
H            3.10688481929063       -2.14155150346301       -0.67728667965065
H           -3.09604096710874        3.06213912932108       -0.72622786423131
H           -4.68186402993227        1.47111289780578        0.14685873657856
H           -4.19787880139996       -0.80346533771381        0.60256282347495
