25
 energy: -48.305810609476 gnorm: 0.000849307850 xtb: 6.6.1 (8d0f1dd)
N           -2.26536150036534       -2.96257070550986        0.96315539738943
C           -2.14118526508600       -1.89749870809246        0.55797410325701
C           -2.11123031924536       -0.53093025953579        0.16579284862975
C           -3.37091522031436        0.07824787556274        0.28132715427052
C           -3.73559009478784        1.35288182522407       -0.09396924240769
C           -2.85119627395253        2.34802555694281       -0.52915142771623
N           -1.56864247781069        2.40610111843907       -0.33605623611438
C           -0.65781121789812        1.50776795658764       -0.02772447153500
C            0.60760488750539        2.00951076926716        0.30353567530093
C            1.69673177274060        1.16987184766409        0.27428728468529
N            2.99980298416849        1.40156026142347        0.44226805750533
C            3.57807181893179        0.22780575965935        0.12522359303061
N            4.89176512605066        0.04299388704804        0.16193826393621
H            5.49053928266422        0.80038824693625        0.43899195960189
H            5.26447935811183       -0.85501655940809       -0.09123851992923
N            2.73808738295683       -0.78275981934826       -0.25459990030961
C            1.54166028242842       -0.23940286116463       -0.16182308056836
C            0.26340325986106       -0.78204391484746       -0.35076954871402
C            0.15706962355478       -2.12225099548390       -0.77986953302023
N            0.11796526209989       -3.18341322799274       -1.21360837634062
C           -0.85509885302073        0.03468700956207       -0.13610405354837
H            0.71963113672260        3.06884459823446        0.46862859491062
H           -3.26927269369878        3.24545747182407       -0.97458113436359
H           -4.78489831626531        1.60933982078749       -0.04908711359199
H           -4.16103014194802       -0.57636671433450        0.62987300705487
