28
 energy: -46.670693882142 gnorm: 0.000773582534 xtb: 6.6.1 (8d0f1dd)
N            4.56900025285620        2.58126039531742       -0.22871592838110
C            3.78172546552577        1.74577853041382       -0.18222382080431
C            2.81344228402616        0.72406062108448       -0.10987437983770
C            3.20917000042750       -0.55908757257573       -0.46275405703946
N            2.58936882670185       -1.68726158430632       -0.19632498676476
C            1.35113918023620       -1.89610417060478        0.18046006814466
N            1.14053110235373       -3.09361600073714        0.75514343417502
H            1.92855714856492       -3.70199757945538        0.89834781178755
H            0.22869076236730       -3.36402303210393        1.07597674848228
C            0.19622524026280       -1.04364983644469       -0.02833708110684
C           -1.04047160579458       -1.61835803695173       -0.23493312741439
C           -2.20142980497479       -0.84625587523010       -0.25703497377651
C           -2.09818156707840        0.58080119793179        0.05336294851283
C           -3.43913357759479        1.10454722366364        0.02286464598145
N           -3.78368302672675        2.40226333127323        0.33515173571256
H           -4.70277693946382        2.68666787785285        0.03363686545117
H           -3.06813058721436        3.09459915645542        0.17765818984241
C           -4.28584463093830        0.05959855023171       -0.28045063490542
C           -3.53818631925778       -1.12968816592539       -0.45582526102458
H           -3.95605118476801       -2.08832487465446       -0.70447506436883
H           -5.35474842543623        0.13260022371690       -0.37595078149159
C           -0.88940507951372        1.15173911512049        0.27882549833055
C            0.31886423888158        0.39867289217972        0.16152984153311
C            1.49483708762284        1.11810277485510        0.22932778575604
H            1.39198057960518        2.17578054864791        0.44782380783048
H           -0.80166913508416        2.21014603887184        0.48941586590240
H           -1.11999934036564       -2.68286012350125       -0.41312812685438
H            4.18741492227919       -0.69155690532531       -0.91353813787251
