27
 energy: -47.749379577054 gnorm: 0.000434771550 xtb: 6.6.1 (8d0f1dd)
N           -6.08448658727957       -0.23092437724846        0.01120414751871
C           -4.93767966366409       -0.23903570423517        0.00735816639793
C           -3.52109886083047       -0.25023678652119        0.00435738259327
C           -2.91594582342554       -1.51143841775121        0.00149625476278
C           -1.57342164491288       -1.81160695781130       -0.00211589150718
C           -0.42155166368112       -1.00361442830950       -0.00405093099177
N            0.69418518297481       -1.72519784537619       -0.00754747344133
C            1.87040358230160       -1.12386283857237       -0.00977642368962
C            2.01685431934393        0.35859126981958       -0.00857459163078
C            3.36029663476617        0.64798106835202       -0.01151944761836
C            4.05888805403254       -0.58874237410324       -0.01443405980658
N            5.39486298891529       -0.71237481887039       -0.01784444974516
H            5.98116634159758        0.10333242949557       -0.01782181452826
H            5.82335057721897       -1.62079152822371       -0.01923469640793
C            3.13942583494923       -1.66488407023828       -0.01337854915460
H            3.39153575074896       -2.70667360442337       -0.01506260921135
H            3.81349389092953        1.62135174925611       -0.01159450618595
C            0.84265771086518        1.11620243242791       -0.00494155081458
C            0.95660563607511        2.52214812683901       -0.00417634204445
N            1.10064191269387        3.66189703896467       -0.00244630859472
C           -0.41411285417833        0.47196691693102       -0.00249457753913
C           -1.55006653419062        1.29278218696067        0.00115831007128
C           -2.89786288609039        1.00107149061450        0.00417017557108
H           -3.56706011997070        1.85321431769824        0.00669511440817
H           -1.32149841474052        2.35421301979320        0.00170073833907
H           -1.32019530312612       -2.86498158881202       -0.00391160608201
H           -3.59696627922242       -2.35414432585608        0.00220793143143
