27
 energy: -51.738174433550 gnorm: 0.000696575960 xtb: 6.6.1 (8d0f1dd)
N           -4.67214436819365       -1.20484391662406        1.25235775631365
C           -3.93054187284020       -0.45106913283567        0.80120089999329
C           -3.05507143880390        0.49076412090259        0.25832464859707
C           -3.44276724261932        1.73513659016874       -0.32263999645040
C           -2.34182042695390        2.42374029141615       -0.79382153415807
C           -1.20056575625712        1.66953152264154       -0.48893329659041
N            0.06294564291877        1.95694777783336       -0.66635774085668
C            0.97778569351705        1.07280654752218       -0.27811340460201
N            2.15510768593886        1.52431532737757        0.04075447737947
C            3.28683523573622        0.87962780903695        0.33575573852260
N            4.18619956643317        1.65243544010280        0.98604277988654
H            5.12620722527432        1.33845306238681        1.14063937879939
H            3.95383391337609        2.61880162059706        1.13106534768403
C            3.64106554447786       -0.41295955032515       -0.05906909183076
C            2.71892462106470       -1.39179628285317       -0.46645303704607
N            3.15583866545504       -2.53835052519555       -1.03582618450972
H            4.13641161530056       -2.75288484914478       -1.05895768697108
H            2.49448944281413       -3.29041796958043       -1.12984913811287
N            1.42280610275882       -1.36596332808388       -0.19491273531889
C            0.60246031133656       -0.36551262859370       -0.04456237713085
C           -0.74116497056209       -0.62057169310072        0.32929368899651
C           -1.10324302513941       -1.93438688676882        0.69383005117526
N           -1.35893839766680       -3.00915439807761        1.00232625209820
C           -1.66833577936619        0.40428473230090        0.16781256033056
H            4.68125056281831       -0.70123313065523        0.01627712716372
H           -2.34131623525887        3.38565873626715       -1.26632006248834
H           -4.46506843505657        2.06475259467322       -0.38802862236273
