26
 energy: -48.013713869192 gnorm: 0.000371055365 xtb: 6.6.1 (8d0f1dd)
N            2.40925566765663        3.60247076843306        0.00077405597368
C            2.30269422513364        2.46108156670711        0.00017172513653
C            2.26420396963867        1.04100851557919       -0.00012466517872
C            3.51330061627751        0.41518879596058       -0.00137330277454
C            3.77954297708374       -0.93934102776931       -0.00193246372005
C            2.84840063016997       -1.98571644750950       -0.00136849388450
N            1.54376794482582       -1.98060728149625       -0.00043850227296
C            0.68018047496322       -0.97261208777969        0.00039323228073
C           -0.67178169188284       -1.37047404094149        0.00114493717880
C           -1.00475060551081       -2.74303192994396        0.00114797620090
N           -1.33669377033533       -3.84092015334415        0.00080821518433
C           -1.68251769103269       -0.40644730447329        0.00213167901231
C           -1.26437670451209        1.02580616116244        0.00241208444389
N            0.00403478060483        1.40311025830353        0.00170631881754
C            0.96239303149989        0.48949697004668        0.00070451031646
C           -2.40711862097543        1.79321888375723        0.00344968760741
C           -3.51352160975063        0.90472277003375        0.00382734861425
N           -4.79927417422614        1.27729010437241        0.00478768886034
H           -5.52967772142534        0.58690631319903        0.00494025239329
H           -5.04693840606644        2.25122353687213        0.00525174842055
C           -3.05651502024858       -0.44106093430385        0.00303436147802
H           -3.68134794522794       -1.31383508601738        0.00312631854365
H           -2.45853524227812        2.86356961517995        0.00388337308728
H            3.25645497412407       -2.99310433511083       -0.00182854630938
H            4.82089486949534       -1.23268228746369       -0.00288553702722
H            4.36502270339908        1.08527063164627       -0.00193679728258
