28
 energy: -51.471211706619 gnorm: 0.000784752451 xtb: 6.6.1 (8d0f1dd)
N           -6.14103705044073       -0.07364492403110        0.01413603736277
C           -4.99347470847795       -0.12342041805422        0.00400667653634
C           -3.58199198399246       -0.18230215188590       -0.00376664564427
C           -3.04132555157934       -1.47326151946843       -0.00062385124974
C           -1.73075083390820       -1.88074585456323       -0.00094690288032
C           -0.53137502722026       -1.14569065376252        0.00505319917907
N            0.56040355999589       -1.90889594318913        0.00918772246002
C            1.73808070822045       -1.29660841671777        0.01464874473602
C            1.82436283278936        0.19006808471310        0.01616144167059
N            0.75288426881691        0.94517950226055        0.01085584583539
C           -0.44543313319627        0.32150953723588        0.00380944112339
C           -1.50581396885642        1.21610056748106       -0.01006496193914
C           -2.89661451436168        1.05513938015969       -0.01435154939033
N           -3.63965043410857        2.18944988029063       -0.03879768264817
H           -3.19091684898808        3.08695816390549       -0.00891700034867
H           -4.64366558772955        2.14567100689509       -0.00829603827905
H           -1.16447974067375        2.24647118786178       -0.01727759833621
C            3.18316308553814        0.52549053009555        0.02798618558485
C            3.76745173540602        1.78807751746154        0.03480587937903
N            4.30354278315866        2.80696733101714        0.04046295141468
C            3.91265942227736       -0.70030902280786        0.03241060665387
N            5.24861719430960       -0.77888210628691        0.04351916542557
H            5.79991659771941        0.06288598782174        0.04906249632626
H            5.70998411896862       -1.67137918158677        0.04735554837366
C            3.01927473716506       -1.80045459773330        0.02517257707762
H            3.30559558570508       -2.83403481912114        0.02844418009587
H           -1.55664267557644       -2.94969655098725       -0.00297581262043
H           -3.78169891276089       -2.26533992620368        0.00200157740134
