27
 energy: -52.527002011856 gnorm: 0.000614722904 xtb: 6.6.1 (8d0f1dd)
N           -5.38684289135553       -1.03947323573502       -0.52295530887370
C           -4.25579159902907       -0.95631005179358       -0.34425071349108
C           -2.86229707672071       -0.85213808745163       -0.13028798763126
C           -2.18618475304400       -2.07843333804695       -0.00158049845550
C           -0.85366538134783       -2.32071447138771        0.16153795986817
C            0.26386848090053       -1.45088662215169        0.10833135477270
N            1.41793382668665       -2.07866727907405        0.18252015927634
C            2.56637224794069       -1.43272623228870        0.18637625749184
C            2.62483832962319        0.04388143453777        0.05553180450914
N            3.89634375079067        0.44179592714405       -0.02559194819501
C            4.63887835083267       -0.66094311898888        0.02568054133740
C            3.88441306171845       -1.84788613825801        0.09124086061105
H            4.25748912762642       -2.85089495385149        0.12720515220146
H            5.71132050189290       -0.58107500328984        0.01660418291729
C            1.43233233615585        0.71486390520145       -0.12950746030559
C            1.46323953925448        2.04295723769604       -0.61513174717526
N            1.52114499444155        3.08008253246274       -1.10036847887264
C            0.19321943002431        0.01209893951518        0.00463512788233
C           -0.96641902542280        0.77605456193593        0.19525900064263
C           -0.77174741674813        2.09825866168750        0.67541113407234
N           -0.72153849908854        3.12542705192879        1.18628653775378
C           -2.34913719079572        0.44833570366288        0.03421511140354
N           -3.22658959696301        1.47369376228405        0.04230850634225
H           -4.21396853683488        1.29291437335743       -0.03182357263144
H           -2.91337602192011        2.42182297943689        0.16743252967235
H           -0.55943639741735       -3.35216106211174        0.30423119475409
H           -2.83232001249989       -2.94760610692066       -0.02958190377636
