24
 energy: -39.771501027043 gnorm: 0.000901165358 xtb: 6.6.1 (8d0f1dd)
N           -2.01043700843331       -3.40790973687185       -0.00168790157278
C           -1.87527922717797       -2.26889188676207       -0.00059152303338
C           -1.80127276798596       -0.84902452201321       -0.00067192000331
C           -3.04486738535332       -0.25347451409808       -0.00103428829451
C           -3.34435619862346        1.12042034707854       -0.00048501567793
C           -2.45398643004153        2.16443104043942        0.00015633637743
N           -1.12020069143130        2.17631953828137       -0.00037420515586
C           -0.25748847411358        1.20017760925284       -0.00072223663131
C            1.09107289131445        1.66759813858585       -0.00130554100255
C            2.14429887872097        0.80989163470834       -0.00099184576878
C            1.91101216943448       -0.64473352289816       -0.00025479153495
C            3.13915809786114       -1.25554070478000       -0.00005792237413
C            4.14098049130589       -0.23461014452742       -0.00061484272264
C            3.55684082678883        1.00221041834328       -0.00116376625007
H            4.05234126860638        1.95401038412109       -0.00164582356644
H            5.19870409598109       -0.43114913431304       -0.00058568429369
H            3.33367364354808       -2.31153303924939        0.00043479084609
C            0.59508361243394       -1.12331882943816       -0.00002350778764
C           -0.48851705556520       -0.27384926100366       -0.00031124856018
H            0.43499249514288       -2.19315810026676        0.00032778880408
H            1.22421367112988        2.73942626094218       -0.00172227495970
H           -2.86435847844242        3.17018374635325        0.00091731826519
H           -4.39563207901871        1.37668016051927       -0.00046716149307
H           -3.89407691178127       -0.92641895790360       -0.00154537510984
