31
 energy: -53.827995076816 gnorm: 0.000808898066 xtb: 6.6.1 (8d0f1dd)
N           -4.78024635152571       -2.08826327722737       -0.60802694412528
C           -3.92409626940247       -1.33956720270147       -0.42962647754326
C           -2.86926355563912       -0.44080183286728       -0.19848634807570
C           -3.07325188371435        0.87706599653774       -0.56074298702873
N           -2.38644501079809        1.91996747548355       -0.15895779517084
C           -1.16375064075982        1.96396463681081        0.31712043614004
N           -0.87895393158092        3.06877320205144        1.03039068252959
H            0.04347675373416        3.21322130710402        1.40202643399776
H           -1.61886964800643        3.72256099123844        1.22097956823293
C           -0.10257539882626        1.01693151527310        0.06064987187513
C            1.19553997083229        1.48477177730882       -0.14805769212018
N            1.48157580602930        2.83644399761668       -0.30460591330625
H            2.40303055356949        2.99486976294582       -0.68419016431401
H            0.76979303437660        3.39120226786617       -0.75686764688020
C            2.26593780731640        0.57557720808803       -0.18427961779031
C            2.00186546913637       -0.83564880076416        0.02791520354174
C            3.28744511248342       -1.45065153352230       -0.09199027720527
N            3.57943581122824       -2.78119552598210        0.10589726893793
H            4.51799269754155       -3.02144083780046       -0.17635536678588
H            2.87692962090551       -3.43439270660008       -0.20621745797650
N            4.22994396849281       -0.55047017007025       -0.33059314213029
C            3.63021009129114        0.66537279532007       -0.39690861868432
H            4.23377871329754        1.53406575753254       -0.59135034388000
C            0.73331549834641       -1.29417595599156        0.24567096096666
C           -0.37045531624777       -0.41682959607534        0.22488730194769
C           -1.65568850981302       -0.98513975670830        0.36122310203979
N           -1.80200209508687       -2.20087710801426        0.94178150976014
H           -1.00928329817224       -2.70185469876500        1.29876963332788
H           -2.68062575550061       -2.68442249849423        0.85473716016211
H            0.57619000389044       -2.36165581192859        0.32331599532590
H           -3.97169540099836        1.12291282933570       -1.11714901826845
