29
 energy: -46.388600839369 gnorm: 0.000684638590 xtb: 6.6.1 (8d0f1dd)
N           -5.01671993799696       -1.08538237292542        0.45288240564948
C           -4.00394306047347       -0.57686782367746        0.25163301305940
C           -2.76015607279586        0.04078825038768        0.01793706891492
C           -2.84127513827388        1.35944553946780       -0.48158683357451
C           -1.83897251697944        2.27412372568572       -0.59942239436590
C           -0.48710584794057        2.12164980731501       -0.23673159820323
C            0.24658025102825        0.99872909910129        0.05849689138920
C            1.66213735182298        1.19778086804782        0.30230000821340
N            2.13145483002563        2.44189689791020        0.63189957549482
H            3.11367076245328        2.49015802651844        0.84431606302280
H            1.54032542375393        3.06130433734190        1.15921585549899
C            2.53825177026723        0.16033882016040        0.07112297680697
C            2.03811195418746       -1.15522953410736       -0.28571687689379
C            3.13355682409514       -1.97752567402675       -0.48472615105070
C            4.29874352469508       -1.21404382422908       -0.26029299713320
C            3.95470657835046        0.07255953904787        0.08736535164874
H            4.64183773744047        0.87000040014915        0.30856606877041
H            5.30306812506764       -1.59174255440948       -0.34179353787096
H            3.10975887285788       -3.01818346596672       -0.75232618635474
C            0.66214075296575       -1.40104204454686       -0.23935308641087
C           -0.24145000269462       -0.38608237743598       -0.00975519558904
C           -1.61564999878800       -0.73830544277261        0.25373170090364
N           -1.82615955730270       -1.97460494631962        0.75411592565311
H           -1.05227794167526       -2.57115978942081        0.98503114490654
H           -2.76529736692167       -2.29160674657730        0.93080142136523
H            0.32494792765099       -2.41428463219659       -0.41171278963845
H            0.07262957521535        3.04792901611596       -0.27655837071335
H           -2.11444861081797        3.25447183593431       -0.96467944202339
H           -3.84265831791870        1.68219645882658       -0.74163243757441
