27
 energy: -47.756069272181 gnorm: 0.000814289655 xtb: 6.6.1 (8d0f1dd)
N           -2.79049290096137       -3.51854776994889        0.00013242912203
C           -2.55973948159975       -2.39461155568717        0.00116479146858
C           -2.37763453530332       -0.98391741449368        0.00024837932162
C           -3.59257181394504       -0.32120623714251        0.00049189052316
C           -3.84946613514200        1.04912055433138        0.00029252552320
C           -2.92517268175656        2.06881369768230       -0.00007305635037
C           -1.53430694778638        1.98665939913952       -0.00036503451342
C           -0.65415749107427        0.90719135360013       -0.00048847952046
C            0.72795521019403        1.24339515232904       -0.00083609082638
C            1.15215745052994        2.58975516315715       -0.00063420569477
N            1.51195991381439        3.68002767966184       -0.00147998972062
C            1.70918895719082        0.26094401681603       -0.00109565470080
C            1.31671741918024       -1.15831415309748       -0.00088842695228
C            2.50284655760131       -1.85784791601423       -0.00127023529027
C            3.52240343919202       -0.86253227919235       -0.00170687596874
N            4.84328359381838       -1.07210978703117       -0.00182320061042
H            5.45378211359679       -0.27391765560722       -0.00324375836494
H            5.22297858946471       -2.00105951552732       -0.00368835632753
N            3.03392110230961        0.39617408721545       -0.00157120667857
H            2.65504240658920       -2.91838484071065       -0.00125584969853
C           -0.03557767011989       -1.48789436242751       -0.00043037232909
C           -1.02518113516592       -0.51771013452638       -0.00025400567627
H           -0.31351238001052       -2.53224410771245       -0.00024511832257
H           -1.03936986572397        2.95175946676440       -0.00059453266494
H           -3.32400350676259        3.07506715680651       -0.00014269056988
H           -4.89331750445130        1.33361967681949        0.00049483558728
H           -4.46553873627863       -0.96433783860422        0.00088208863503
