25
 energy: -44.289811041355 gnorm: 0.000964375114 xtb: 6.6.1 (8d0f1dd)
N            2.08320556072368        2.96281000573240       -0.92681153699561
C            1.89603331856876        1.91340431909992       -0.50482045410166
C            1.81959724388825        0.54412578540288       -0.11835782624162
C            3.08359498334470       -0.01898960382713       -0.00263069520890
C            3.43818899078393       -1.34025265744844        0.26751498245003
C            2.61441992200424       -2.44336801963691        0.28809526328216
C            1.24051102086320       -2.48784382622853        0.05617158738937
C            0.28568695395723       -1.48436866504103       -0.05586101160900
N           -0.95118244083810       -1.98825313915009       -0.21465229137556
C           -1.98520102333036       -1.19501577917541       -0.18686635240625
C           -1.87735827525075        0.27294667041008        0.05970981856980
C           -3.15608004351535        0.77150706854259        0.12464944201136
C           -4.04691526927580       -0.30835057454793       -0.09922383662932
C           -3.35472765788803       -1.49165515990278       -0.28418846624598
H           -3.77107758975497       -2.46235947280731       -0.46691677593884
H           -5.11828001813217       -0.20955212375335       -0.11684022882317
H           -3.43837002399037        1.79203484124121        0.30223652691641
C           -0.58779774989897        0.81339160149207        0.14734759313637
C           -0.49768310885853        2.18982841499996        0.45859187587114
N           -0.54955034371734        3.28105507489864        0.81006232147679
C            0.52931217102206       -0.02834208834748        0.02316381398732
H            0.79937806700912       -3.47577257059494       -0.00170129579681
H            3.09057036787146       -3.39924451497439        0.46192562795692
H            4.49418240262009       -1.51655722985329        0.42702952094513
H            3.90554848969348        0.67738225605740       -0.11990415642293
