32
 energy: -59.166636781621 gnorm: 0.000865762166 xtb: 6.6.1 (8d0f1dd)
N           -4.73325559635312       -2.60228256202609       -0.95509329247103
C           -4.07728669626611       -1.70101075078889       -0.66381128226253
C           -3.30504147559643       -0.60343994256804       -0.30491362124637
C           -3.78968799676432        0.66291388106572        0.06675212381583
N           -5.08077965230752        1.02215194700737        0.13319016864308
H           -5.33692804500308        1.95795926943394        0.39217739436245
H           -5.79981543162201        0.36540501842927       -0.11680642715135
C           -2.68519205373834        1.52226952963481        0.37685573019793
C           -1.53010734755588        0.81035780740010        0.19264123443470
C           -1.88567160367355       -0.54896940514661       -0.22954350286371
C           -0.91746052783135       -1.49004273136491       -0.39609019605310
C            0.45410238133295       -1.18158598801381       -0.16034903213762
C            1.30515096618004       -2.25016974681448       -0.02057316899677
C            2.67880603681898       -2.26164005935708        0.36149923429108
N            3.56826370543351       -1.31291699933799        0.21672890009529
C            3.37277363416130       -0.06488228394026       -0.20798306905473
N            4.51489135598978        0.54114021642198       -0.60386298251157
H            5.37432632753316        0.03233273149062       -0.49925803676700
H            4.53244177666984        1.52210447047599       -0.82233015037680
C            2.17078561767560        0.68054387443260       -0.19812264679396
C            2.34341204863671        2.03515807831878       -0.54980551912614
N            2.59400808715625        3.08805646165382       -0.94117707463280
C            0.83889557452674        0.22632730895465        0.02255219174674
C           -0.16207012871091        1.16012239589356        0.29015227603630
C            0.11814186606013        2.46980280931717        0.72678158678915
N            0.24141888344360        3.51563589017178        1.18658816406696
N            3.16619283042596       -3.42847125356219        0.84318629755226
H            4.12223682162234       -3.45291289027354        1.14981095852057
H            2.55779596467477       -4.19667084633839        1.05978727565627
H            0.85797504975891       -3.23213608428045       -0.12293088373980
H           -1.18288939226644       -2.51128046835151       -0.62984246132348
H           -2.77087171121148        2.54562136016184        0.68981657810110
