24
 energy: -43.774506355576 gnorm: 0.000818107479 xtb: 6.6.1 (8d0f1dd)
N           -0.71057527206039       -3.85526321307116        0.05221696472668
C           -0.91095305141909       -2.72666591872421        0.03713856849605
C           -1.23787791012715       -1.34623955748889        0.02114753299008
C           -2.59234586558820       -1.06932529549522        0.04293418438310
N           -3.26237945230798        0.07095758695563        0.00031442669690
C           -2.75943119534409        1.28666437875460       -0.02079058122933
N           -3.69164367224006        2.26194768550037       -0.08777245784033
H           -4.65667057467719        1.98545774947834       -0.13787767538324
H           -3.44811175249508        3.23443108516067       -0.12703298807043
C           -1.39724838778301        1.71650268921173        0.04296856907645
C           -0.22703562000569        1.00295570941017        0.04147908066088
C            0.98962380724418        1.75885822164555        0.08755924081715
C            2.17210219662492        1.09977174887612        0.06275895231488
C            2.17645022662488       -0.37559614156301       -0.03137292694902
N            1.04562295490290       -1.09112984243647       -0.04938636007044
C           -0.10282999952709       -0.46914476371832       -0.00645452915089
C            3.49902077940550       -0.73015188853237       -0.09144708172391
C            4.21565618035610        0.50588677313104       -0.01380626599936
N            3.45784920738418        1.57194719846485        0.07708478653564
H            5.28767023456541        0.60825586734959       -0.02369720619638
H            3.92317630084463       -1.70996756108701       -0.17169768329124
H            0.94250800446105        2.83823674363982        0.12519181716672
H           -1.28292939296812        2.79542860260756        0.08837116820131
H           -3.25419726877053       -1.93057263826947        0.08391227043872
