35
 energy: -67.910315722674 gnorm: 0.000972127018 xtb: 6.6.1 (8d0f1dd)
N            4.87066977475309        1.73707305822134        0.92229966080316
C            4.06865909115456        0.97447203102693        0.60880530080985
C            3.19192673701963       -0.03191377805204        0.20985973112423
C            3.63652495783046       -1.32583604894806       -0.22947357242073
C            2.51702085877679       -2.11329850172087       -0.57727780788229
C            1.38567594541486       -1.35327551412894       -0.35881775390345
C            1.80166449161167       -0.02340334879929        0.11711222430656
C            0.84130374028405        0.97085122190268        0.28539637865534
C            1.24021060407496        2.22905270794759        0.78373346612427
N            1.57785227642921        3.18927399855406        1.31467623950917
C           -0.52775543153516        0.70440764200950        0.01739532770796
C           -1.36143028647213        1.78890320751924       -0.29154167698684
C           -0.71810878718889        2.99133611367666       -0.67606022164261
N           -0.31661651627000        3.97093479867134       -1.12354985278407
C           -2.78220785610492        1.85287629908833       -0.39921429762277
C           -3.66951866802603        0.88652015362062        0.06169594616067
C           -3.44059051751447       -0.41733017757130        0.49823382331096
N           -4.49381139904642       -1.07145141226084        1.04551801342072
H           -5.38863461632685       -0.62220118395497        1.11092664342674
H           -4.41810496463643       -2.04058961516734        1.30223795818631
C           -2.23126729897578       -1.14436056751604        0.32515397273942
C           -2.33332301787012       -2.50468540413930        0.70243683409620
N           -2.50688550017560       -3.55467268256293        1.13779884997507
C           -0.95187302135292       -0.69706766629443       -0.05627491924531
C            0.01933036081684       -1.65984212046686       -0.40431256842276
C           -0.33599852648607       -2.94814449357481       -0.85080413430266
N           -0.53919659185344       -3.96850216976098       -1.33784054086672
H           -4.70803150423502        1.19694528267779        0.08549625797961
N           -3.32009291920901        2.98785126444332       -0.90823856458809
H           -2.73307763999874        3.76231029426872       -1.16665572744998
H           -4.31568624754060        3.11370711830063       -0.91557356580229
H            2.54773769351265       -3.12717498871792       -0.92621086460535
N            4.91804848919039       -1.69581541676778       -0.28409800883715
H            5.63756437927981       -1.05001908724249       -0.00236617902656
H            5.17470290777685       -2.61338058548704       -0.60444263904771
