25
 energy: -43.495973029440 gnorm: 0.000939036018 xtb: 6.6.1 (8d0f1dd)
N           -5.90644796626095       -0.03323065640716       -0.00002967081869
C           -4.75947683779814        0.00424852131533       -0.00045332437694
C           -3.34736727305141        0.03923887959165       -0.00042302976468
C           -2.70107140037883       -1.21666007945896        0.00013940799819
N           -1.44015175465379       -1.53144804266434        0.00023911165268
C           -0.35043708361467       -0.76360286215937       -0.00006566610847
C            0.84828343005019       -1.47836149387056       -0.00001201416592
C            2.05505476081625       -0.80336750562449       -0.00036402837647
C            2.01092619090964        0.68819579090211       -0.00068187862599
C            3.30894054550974        1.14449708833090       -0.00098562694367
C            4.15967865994949        0.00520843981251       -0.00090591935983
N            5.50177450094767        0.05335019050593       -0.00080975053760
H            5.97961025502324        0.93669584561108       -0.00235082444348
H            6.04221080799914       -0.79327302404259       -0.00207206247748
C            3.38546130518982       -1.17674653071205       -0.00051193684581
H            3.77611893038553       -2.17674114561222       -0.00036771197919
H            3.63314243660630        2.16647374667689       -0.00127685865117
N            0.87647009734532        1.37531188607677       -0.00070868172741
C           -0.27895947016420        0.72855283296575       -0.00046341394833
C           -1.39384408317258        1.58300041884812       -0.00072390842456
C           -2.74331499741257        1.29887807275932       -0.00072127431544
H           -3.41854483058905        2.14644029509728       -0.00100744150789
H           -1.11623261112917        2.62987879026163       -0.00111788676374
H            0.79613569169137       -2.55749250247705        0.00034189935375
H           -3.35774863379835       -2.08411574942643        0.00051666085816
