28
 energy: -51.483431585791 gnorm: 0.000919343372 xtb: 6.6.1 (8d0f1dd)
N            6.17986796847394        0.23853536275056       -0.01765021972020
C            5.03144089710725        0.23703914790923       -0.00936235930380
C            3.61782988076382        0.22683104986027       -0.00078407847951
C            3.01239869154336        1.47828205427388        0.00011739249558
C            1.67313289438254        1.81038079238193        0.00422720290104
C            0.51807550382680        1.01905861558733        0.00476971697652
N           -0.59711984746755        1.75052297107775        0.00411530242526
C           -1.76366146849095        1.14688213915231        0.00220073743677
N           -2.95173939803293        1.74395115762010       -0.00081735145908
C           -3.86401922476896        0.75300742420259       -0.00308861072792
N           -5.17109694623477        1.01913192040123       -0.00696852165530
H           -5.84578545946097        0.27406834690438       -0.00962567842377
H           -5.46946266021441        1.97884124350814       -0.00858014505671
C           -3.27861887241556       -0.55660422420201       -0.00133302945948
C           -3.97930319717868       -1.75446224974802       -0.00284258368753
N           -4.58823070779522       -2.73217304279710       -0.00372375611306
C           -1.90015759343811       -0.32969931357628        0.00219090865792
C           -0.75406989707656       -1.08921321476784        0.00444639260659
C            0.49827057441379       -0.45382576819913        0.00548385597452
C            1.62030606500929       -1.28668061020496        0.00823590369057
C            2.99306568568622       -1.05083914121359        0.00561292669783
N            3.80766281580311       -2.13885009533522        0.01579616649355
H            4.80664513566381       -2.03135833569899       -0.00854924747937
H            3.41959350766600       -3.06438277297265       -0.00388905484617
H            1.36937384054428       -2.34425004372175        0.01211136835783
H           -0.80910534346582       -2.17016625194211        0.00498780968543
H            1.44191883970990        2.86782681338822        0.00493173771944
H            3.70360930104646        2.31328135966170       -0.00352821710693
