26
 energy: -52.035361078282 gnorm: 0.000690876900 xtb: 6.6.1 (8d0f1dd)
N            5.51660519245347        1.14041649725642       -0.40556746761372
C            4.38582802761335        0.98577682435486       -0.26980370191932
C            2.99770997806750        0.78955397386072       -0.10920680749303
C            2.24571115300893        1.95495311699261        0.07946580095025
C            0.89143494414594        2.12129400454873        0.19375045878623
C           -0.15963592831119        1.19572120527546        0.02412129405042
N           -1.37607294498045        1.73301937700940        0.06007378609538
C           -2.43593816100957        0.98085885494096        0.10804615012601
N           -3.71933686424521        1.25315135334554       -0.02619365637798
C           -4.30887304301264        0.03363074626680       -0.04935072763862
N           -5.62763958793898       -0.10363841767503       -0.14133382099280
H           -6.20503629363453        0.71645221498729       -0.18944283999847
H           -6.01940981897164       -1.02607771442649       -0.20553524089672
N           -3.48155885002617       -1.03964459747322       -0.05347363158673
C           -2.28115504482038       -0.51516233273106        0.08236404043962
N           -1.09074223850316       -1.03063430791883       -0.02106552342760
C           -0.00830168609759       -0.25196508724423       -0.03180652668390
C            1.20880732927534       -0.97080920730024        0.06073452783087
C            1.02486703362446       -2.35990695660708        0.27109263339636
N            0.95294567150290       -3.49390463935185        0.43658662638960
C            2.55438730956599       -0.55786355043992       -0.05522167881388
N            3.49985339012515       -1.51967328152533       -0.09126898323848
H            3.23935312048308       -2.49083340217733       -0.04730558975183
H            4.47321018360212       -1.27230487687350       -0.15379901838070
H            0.53828604618830        3.12052923031366        0.41165284746562
H            2.83831617309342        2.86035908188968        0.14476242778241
