28
 energy: -57.056954119169 gnorm: 0.000289492381 xtb: 6.6.1 (8d0f1dd)
N           -1.87789997292036       -4.06331435049150        0.01175311952666
C           -1.96922126792438       -2.92138918166457        0.00834633527304
C           -2.17295143145054       -1.51646950990349        0.00402827955859
C           -3.50188702889799       -1.12061961563586        0.00582090099575
N           -4.06397007781961        0.07377596958903       -0.00082303823720
C           -3.45973987422140        1.24485931047282       -0.00641274171054
N           -4.29691750465719        2.29657717563661       -0.01634698400467
H           -5.28576131152487        2.11075184799761       -0.01931000247426
H           -3.96737189211838        3.24552199683755       -0.02030654829221
C           -2.05939582505838        1.55149071709268       -0.00133072429849
C           -0.96405720044108        0.73011632880232        0.00088746483851
C           -0.97071951676821       -0.73921411694324       -0.00004634475635
N            0.12635816299861       -1.46191535532275       -0.00209762311894
C            1.31147239044151       -0.86733420233333       -0.00218319934498
C            1.46295705221087        0.59644808293958        0.00160281722441
C            2.87268482972022        0.87387783298229        0.00156104057085
C            3.45395289707419        2.14715976780915        0.00479225891496
N            3.93275220469572        3.19044723401990        0.00736016508830
C            3.53114288375644       -0.33774854088526       -0.00238276150440
C            2.58819531075055       -1.41662418205341       -0.00486354949264
C            2.93038072976296       -2.77250652063880       -0.00944791600893
N            3.24394548716895       -3.87673462015860       -0.01293571209576
H            4.59838214249169       -0.46973992915374       -0.00350778432317
C            0.33870081956964        1.37139568367797        0.00317368528533
C            0.42192706060318        2.78473829006801        0.00626180098506
N            0.46094826508778        3.93042103561141        0.00685301774256
H           -1.84959764125809        2.61664287619772       -0.00036232778388
H           -4.23602557647179       -1.92148917815004        0.01203478194243
