25
 energy: -48.292117269827 gnorm: 0.000639507388 xtb: 6.6.1 (8d0f1dd)
N           -5.15670697834804       -1.19150331529028       -0.44117061337931
C           -4.02911873121713       -1.02377628820596       -0.29382113871451
C           -2.64626060832603       -0.80753252147922       -0.12020048438840
C           -1.87782221469640       -1.96124598137098        0.08107071372423
C           -0.52278861872964       -2.11018858078249        0.20159286382206
C            0.51514742437010       -1.17088715156766        0.01451354889667
N            1.74090633665380       -1.66462990369018        0.02933560471751
C            2.80355004853887       -0.92209093848615        0.09659795494533
C            2.62558346656809        0.57651129698186        0.03331846184331
C            3.91208441728770        1.07195026205506       -0.17445930161042
C            4.74467749061855       -0.03863447097866       -0.11883454939054
N            4.07795253490894       -1.20477658192209       -0.02838076090059
H            5.81802559804653       -0.05238061383624       -0.17488602834505
H            4.19107591030581        2.10232549414448       -0.26529662475610
N            1.42001689206565        1.03901978814626       -0.10013488295892
C            0.33839304286580        0.27922217223241       -0.05102119815789
C           -0.88973940939405        0.98156154786606        0.07517517297156
C           -0.71999222741704        2.36152292252415        0.33423752820319
N           -0.62712667674761        3.48814243239156        0.53868197212224
C           -2.22600980808089        0.54763685996877       -0.04545500651153
N           -3.18838629468424        1.49353954237972       -0.06203923212536
H           -4.15767301907157        1.22987096551072       -0.12116335213900
H           -2.94600830071892        2.46814450424806        0.00140551702785
H           -0.15856598946643       -3.09792796841451        0.44978300438525
H           -2.45868003213227       -2.87359020702629        0.15407316241970
