33
 energy: -64.466361131970 gnorm: 0.000826778766 xtb: 6.6.1 (8d0f1dd)
N           -4.99364518537869       -1.07794299753539       -0.82545749323961
C           -4.07362918236790       -0.44771870009613       -0.54572793450859
C           -3.03480557454777        0.41320332019692       -0.19352334341221
C           -3.24761568292582        1.77978037472655        0.17899013898840
C           -2.00151522971817        2.38139686784668        0.48681261686663
C           -1.02241920901124        1.43012130185215        0.30807857305473
C           -1.66325284157646        0.16981886518535       -0.09957145137147
C           -0.89099880614187       -0.98145200344091       -0.21743968560245
C           -1.51753969871691       -2.17026805736243       -0.65254681321333
N           -2.05014161602975       -3.06643597428011       -1.13171804458824
C            0.50439886582224       -0.94317565771407        0.03989215758715
C            1.15972991046980       -2.13740710817669        0.37326173901177
C            0.37162743083631       -3.26208003558228        0.73906274016452
N           -0.14570664364169       -4.19355560839070        1.16316330978741
C            2.53117814783843       -2.39740648641607        0.55135905521598
C            3.60935776004368       -1.62508344846131        0.22151008621634
C            3.62703814597545       -0.30949928580758       -0.28854217170431
N            4.81801764700766        0.14821875617782       -0.73867722686739
H            5.62710168910697       -0.44548396184295       -0.71795624434089
H            4.91778286458900        1.09374833912383       -1.06778170726021
C            2.52634946705253        0.57357729298628       -0.27655904208930
C            2.82942989084486        1.86080135707937       -0.78692634551215
N            3.14901498957446        2.82326936134564       -1.32712154043609
C            1.16749310715777        0.36550649448009        0.07524594207125
C            0.38055631609424        1.49640274517216        0.34627492065467
C            0.95198528546204        2.72914139461148        0.72577060772912
N            1.33204653093791        3.72533554074759        1.15190156598014
H            4.58367604433175       -2.08264672843891        0.33899097716223
H            2.75160318051792       -3.38481578253056        0.93858245072448
H           -1.85706594543183        3.40178596780015        0.78480410468896
N           -4.44248848152883        2.37161008344142        0.21944103596339
H           -4.53071229735396        3.33452345520718        0.49485836530542
H           -5.26833301878356        1.85108882779609       -0.02872849981908
