25
 energy: -48.296486606628 gnorm: 0.000485022804 xtb: 6.6.1 (8d0f1dd)
N           -1.44668899768902       -4.08407373619916        0.00024563621430
C           -1.56987305199532       -2.94491782271136       -0.00075325666179
C           -1.81287435821861       -1.54310642770747       -0.00115107810046
C           -3.14591668222861       -1.18151227250178       -0.00161865574908
C           -3.70847430176752        0.09460744628159       -0.00257608772643
C           -3.05880320113788        1.30955033855138       -0.00354759612408
C           -1.68527881693706        1.57319669217460       -0.00351335715419
C           -1.35347265536345        2.95668189409428       -0.00535201868576
N           -1.17496587424591        4.08852718686759       -0.00578116197413
C           -0.57208440182111        0.70830066369216       -0.00215915242465
N            0.59844697471762        1.36401379181111       -0.00271251671059
C            1.69633688755651        0.64772299698173       -0.00274482691222
C            1.64934753509119       -0.84553017697933       -0.00194144859222
N            0.48267535879955       -1.48839459266962       -0.00113505998185
C           -0.61994571492452       -0.75729795258609       -0.00119739391671
C            2.95577887880299       -1.25124788836728       -0.00101739473221
C            3.71143923252620       -0.03394003076714       -0.00186551038401
N            5.03950793573157        0.06376951402662       -0.00166290669958
H            5.45103118011566        0.98171822600019       -0.00228921343958
H            5.62127417987896       -0.75503704064375       -0.00097739191022
N            2.95035982467637        1.08069920469934       -0.00256023485592
H            3.35322725688926       -2.24540077408578        0.00006277637752
H           -3.68727001116891        2.19257506321441       -0.00450344655863
H           -4.78988539839039        0.13070076088297       -0.00278723976329
H           -3.84677255899536       -2.00838780015211       -0.00129257943357
