30
 energy: -61.300659907834 gnorm: 0.000872570503 xtb: 6.6.1 (8d0f1dd)
N           -3.36595919284285       -2.63996390943255        1.36119922349230
C           -3.10452699764450       -1.66516833895564        0.81879035615221
C           -2.87377062954499       -0.38171735342720        0.25123042691290
C           -4.00841021414174        0.44362890037345        0.31634701005931
C           -4.17638969791597        1.70404398193068       -0.21943594333537
C           -3.16346965336501        2.46818436220768       -0.81107387496203
N           -1.88349446021117        2.32934416961773       -0.63470723207144
C           -1.12943754130117        1.34299866306387       -0.22398787721930
C            0.22871937043474        1.65725185403187        0.03841619779370
C            0.59716688475240        3.01762204081388        0.13864303830770
N            0.88463891056344        4.12217949098499        0.23783353899736
C            1.17808020700811        0.64552733061549        0.09126737526500
C            0.77811913687675       -0.74327571381804       -0.16678178016795
C            1.93145997690336       -1.52091194990912       -0.19438232928420
C            2.07504570294029       -2.89388784901432       -0.40815393533038
N            2.28821625191577       -4.01040814479845       -0.57431330544024
C            3.04983286208560       -0.65524904310835        0.06310107575111
N            4.32002434597516       -1.04626747868388        0.12298858055666
H            5.04906079497588       -0.37580429180400        0.30705866305505
H            4.55980148165781       -2.01473643042422       -0.01731403572584
C            2.57259808718339        0.67130920670234        0.23643032098851
C            3.40540338259224        1.76392901510292        0.49147578934279
N            4.15390124883047        2.60937635361439        0.70211797433780
C           -0.57982430702961       -1.07582395554247       -0.26935433783954
C           -0.93544967624709       -2.41564909441797       -0.54677380660371
N           -1.19071630493552       -3.48583073156394       -0.86897729144555
C           -1.55537409070499       -0.07430012261684       -0.14361548107601
H           -3.43655489434398        3.35166736099851       -1.37690400786391
H           -5.16608624638634        2.13722025498595       -0.18199119754457
H           -4.87887710627928       -0.01774663362682        0.76744747769841
