25
 energy: -49.091474314784 gnorm: 0.000451733123 xtb: 6.6.1 (8d0f1dd)
N            0.65682132516423        4.00504435025141       -0.00033891808224
C            1.07876065552847        2.94096082602959       -0.00083417672198
C            1.70744535088641        1.66079795224252       -0.00100440397399
C            3.08749035069609        1.69388737579928       -0.00156709602054
C            3.98082777748000        0.62070315495019       -0.00198425677287
C            3.68914917210258       -0.72560033234693       -0.00196645384447
C            2.44389848501054       -1.35516929484348       -0.00154052718776
C            1.15213807688458       -0.84393919586671       -0.00100719628952
C            0.77974500282919        0.57568391273224       -0.00071799362952
N           -0.47188262245423        0.99767946206256       -0.00015863305184
C           -1.45489174311290        0.11445838403324        0.00017412293321
C           -1.21871984734753       -1.34531396137701       -0.00007638718141
N           -2.38687752858905       -2.01669909254568        0.00036894270204
C           -3.33321171713725       -1.09458660241095        0.00084966734486
C           -2.84207074028790        0.24539506172739        0.00079086076032
C           -3.61738365171040        1.40682871314408        0.00127125145231
N           -4.27898563282000        2.34486055213751        0.00146973604331
H           -4.37016226210450       -1.38081334674983        0.00128486554368
C            0.08188620355965       -1.79759811249788       -0.00064663655489
C            0.34194495021139       -3.18905081110002       -0.00058899010765
N            0.55062493169325       -4.31604924976547       -0.00144458945246
H            2.49200256031946       -2.43961289326864       -0.00165902334145
H            4.53842361019343       -1.39651760911929       -0.00234533830352
H            5.03009669070314        0.88622129917616       -0.00236910426803
H            3.52803785540137        2.68373583730578       -0.00168710929558
