27
 energy: -52.534447546983 gnorm: 0.000485359328 xtb: 6.6.1 (8d0f1dd)
N           -2.62177875057289       -3.97425362602048        0.32746375835860
C           -2.38881796689850       -2.85420938346580        0.23934172711980
C           -2.14766997550103       -1.46266495426647        0.14000097723787
C           -3.28959673320917       -0.69184126150461        0.23300209064287
N           -3.48896506492025        0.60640495757479        0.03974646680418
C           -2.60267504489304        1.55318096297278       -0.10542810727749
N           -3.09333839664641        2.76035103113243       -0.43311825525712
H           -4.09043569902755        2.85183935207872       -0.53038530597441
H           -2.50271699635404        3.57328269864201       -0.48431565627955
C           -1.16359013862349        1.46185737882351        0.09635811250789
C           -0.49289270494993        2.70412202299713        0.21728297484879
N           -0.05020879728569        3.75925014085158        0.30530878170854
C           -0.35624780146912        0.33943039447975        0.11762676445240
N            0.96325044530414        0.68449866153314        0.21378534378681
C            1.85663171963925       -0.23026305708238        0.06073220487176
C            1.55111110840565       -1.65361217347810       -0.17778159064989
C            2.74860251957342       -2.31695956356028       -0.29493717126438
C            3.80545890269000       -1.37064324686444       -0.14175855949197
C            3.29845043627977       -0.10787581078933        0.07589262923411
C            4.01547397875465        1.07501556049210        0.26721445776382
N            4.62228684789142        2.03741204897174        0.42418521229045
H            4.85200133693121       -1.61512040062941       -0.18664033658068
H            2.88693867130080       -3.36806362784215       -0.46548930507131
C            0.20283792633232       -2.02093910462395       -0.16834374698826
C           -0.77305596254816       -1.05613762175622       -0.00148851417712
H           -0.07594344899694       -3.06030020593967       -0.26942055534613
H           -4.21731649230637       -1.22181240382644        0.42801652803041
