27
 energy: -51.756033304747 gnorm: 0.000611820000 xtb: 6.6.1 (8d0f1dd)
N            0.97066416365229        3.80924009019350        0.03761590880323
C            1.30358475195891        2.71239605990319        0.02693091754364
C            1.80559912050234        1.38528060390522        0.01709518492922
C            3.19291378710512        1.29418574714451        0.02551471862779
N            4.00776253922042        0.26280472205890        0.00334431900652
C            3.66911748757221       -1.01866545212362       -0.01321589315012
N            4.73540983796273       -1.84838846041535       -0.04854567108553
H            4.63560040328078       -2.84632409758330       -0.06719631276280
H            5.65101176096281       -1.43459427766312       -0.06532609661796
C            2.38755158806812       -1.62273922009264        0.01128438147927
C            1.11966157311701       -1.07505367960608        0.01875249120949
C            0.02629437092036       -1.98001242215638        0.03625975696400
C           -1.24669546420744       -1.49013197767391        0.02583408179195
C           -1.43663980965826       -0.02698119998578       -0.00628600962274
N           -0.42152877273254        0.83215167362700       -0.01149519967068
C            0.80816697713535        0.36641629942585        0.00424653420645
C           -2.80542502240173        0.16172035483455       -0.02274108573935
C           -3.58602604213376        1.31038349428950       -0.05770594690916
N           -4.31245088578777        2.20223896482439       -0.08727490610057
C           -3.36053744353727       -1.18951201224543        0.00448646725353
N           -4.66712588369822       -1.45456070951110        0.00149752109378
H           -4.97475284541181       -2.41111791104679        0.02268867821363
H           -5.33617303718603       -0.70419175538606       -0.02062676931532
N           -2.43427861346730       -2.13720267177421        0.03255547246119
H            0.21221541389945       -3.04409841561543        0.05225032038423
H            2.41476088572834       -2.70804002848693        0.01998660011466
H            3.72606605313583        2.24135669695955        0.04652116679169
