27
 energy: -47.743234675873 gnorm: 0.000907295936 xtb: 6.6.1 (8d0f1dd)
N           -0.19591852702743       -4.28761443071248        0.61807288643501
C            0.22171614595718       -3.23720783961170        0.41739356479937
C            0.78183427506752       -1.95937593706459        0.18694686585060
C            2.14977109207921       -1.93310185665022        0.21923366888137
N            2.99968007129492       -0.94832948668847       -0.09600740713122
C            2.74247529826688        0.31542953647915       -0.19891109855171
N            3.73726451469203        1.08234395596730       -0.69227644877529
H            3.69409826990612        2.08632010296148       -0.66166186772739
H            4.60959878222774        0.62809782845856       -0.90186987824660
C            1.51192250675047        1.02007766710594        0.18913660977475
C            1.72719652872360        2.38589905964533        0.46623481243712
N            1.99547224833746        3.48137431355903        0.69311443120000
C            0.22154304107497        0.52184355002853        0.20436314008985
C           -0.82815245681774        1.50177433949876        0.35883100368827
C           -2.11434660810003        1.17442054596546        0.11478958148779
C           -2.48156855981100       -0.19579898904798       -0.22658053798823
C           -3.83811366888861       -0.22136533191586       -0.41845748686485
C           -4.35086673291508        1.11180613436953       -0.20555914822847
C           -3.33757484086844        1.95206266429885        0.11208428237212
H           -3.39331034941024        3.00143008967891        0.32901958374610
H           -5.39091318650720        1.37066819867279       -0.29222985578511
H           -4.43724739714912       -1.07469873967632       -0.67673665505903
C           -1.47978613295860       -1.18287264917319       -0.22874192422194
C           -0.16351771522980       -0.86713257046105        0.00024644384442
H           -1.76135809666956       -2.21365752601913       -0.38773731420960
H           -0.54642919155321        2.51685424891169        0.60171937034550
H            2.66446428892796       -2.86149934998034        0.44410490373723
