33
 energy: -58.075838573577 gnorm: 0.000988750728 xtb: 6.6.1 (8d0f1dd)
N           -5.44239613365483       -2.05949827725187        0.59026565006914
C           -4.58506270397597       -1.30656133070869        0.43731616247764
C           -3.53080416065137       -0.40049642409232        0.23385300464099
C           -3.74287759916061        0.90288187080880        0.64820356490213
N           -3.07651389575215        1.97794335961642        0.30265807157316
C           -1.87088392119286        2.06014564726492       -0.21939562619598
N           -1.61499457210613        3.23501747491001       -0.82639691542944
H           -2.35334134803660        3.91570713362535       -0.87560367434606
H           -0.73484065566141        3.41164436030560       -1.27403103036847
C           -0.79937681625886        1.10625476849806       -0.09542502714757
C            0.49331595160615        1.59353385488787        0.00427528603023
C            1.59358621307480        0.74868025697092        0.02768323220331
C            1.36491509699438       -0.69254220239186       -0.10947478059568
C            2.62741536967527       -1.33094136504895       -0.04090694215624
N            2.87918317637069       -2.67541494467070       -0.19906032864790
H            2.14519753598971       -3.30105156590242        0.09338307377527
H            3.80556189461970       -2.97092844628340        0.07003515832006
C            3.59708665895336       -0.32609251661674        0.11303171669513
C            4.96587253894704       -0.54033644109258        0.25346124467924
N            6.09324723309646       -0.72453939853852        0.40076708629976
C            2.96342756806121        0.95275492344538        0.16683218174398
N            3.63612143769411        2.15414083844777        0.24875142746368
H            3.11898838544415        2.91825949349687        0.65442868828056
H            4.58969499185506        2.08581664991084        0.57146211173634
C            0.09293417749017       -1.17582380803945       -0.25245309505814
C           -1.03953989919304       -0.33463452891052       -0.21696281366922
C           -2.31277674766149       -0.93243450592211       -0.32701715152071
N           -2.43642636276910       -2.16530972129308       -0.87493395794252
H           -3.31536184525799       -2.65034694258734       -0.80901820892602
H           -1.64672479563660       -2.64264055400418       -1.26872057841903
H           -0.04389748545993       -2.24846075434656       -0.29806176435298
H            0.64728724627976        2.65880565190341        0.11856494449541
H           -4.64267818381931        1.10916748401323        1.21958894978805
