29
 energy: -55.999754837930 gnorm: 0.000907035224 xtb: 6.6.1 (8d0f1dd)
N            2.34025789098674        3.88334390446588        0.00041441835593
C            2.35208510387923        2.73610041232252       -0.00038479475767
C            2.43398449279088        1.32080668914784       -0.00047361738029
C            3.75564090307094        0.86307967579325       -0.00158111154576
N            4.27654123798160       -0.33910585729474       -0.00258141618781
C            3.62009330570234       -1.49454938321492       -0.00256158231946
N            4.43201366333406       -2.57171245234696       -0.00418949149085
H            5.42506114802594       -2.41632794773691       -0.00524425135000
H            4.06829416277244       -3.50702700502229       -0.00432336301493
C            2.22767468837472       -1.73457725273971       -0.00099316690445
C            1.14456057237274       -0.87113948534245        0.00039176465790
N           -0.02815636624621       -1.52767732185741        0.00158055736835
C           -1.14474925944169       -0.84673796836051        0.00272100464098
C           -1.18997083830274        0.62846803682504        0.00262409953747
C           -2.53046083709675        1.00983811242994        0.00367992018706
C           -3.06545303726023        2.29559683940052        0.00322852425590
N           -3.55424450001991        3.33715878812756        0.00562697001034
C           -3.32470090032309       -0.18709171328261        0.00466388161894
N           -4.65870672777818       -0.21432653542357        0.00579987115320
H           -5.14603442766073       -1.09510184393453        0.00633199273650
H           -5.18364180226145        0.64461903478092        0.00618431762663
C           -2.47052612102810       -1.31727967470880        0.00381540518970
C           -2.91591497423990       -2.63817085242491        0.00359975679507
N           -3.34305290363589       -3.70583329110831        0.00599823455275
C            0.01236442593150        1.31453001341248        0.00146843515860
C            1.21009849497214        0.60073621924480        0.00043325673629
H            0.02419822929885        2.39560869573762        0.00145025040803
H            1.93194204227590       -2.77704834942351       -0.00091589936467
H            4.51569093372486        1.64109961763378       -0.00177810027378
