29
 energy: -57.574683693133 gnorm: 0.000686128825 xtb: 6.6.1 (8d0f1dd)
N           -3.54126059583959       -2.04230881764346        1.52611536729391
C           -3.13668895035566       -1.17917741553859        0.89090897582923
C           -2.72608913026318        0.02309710265601        0.24542930268857
C           -3.76898574069742        0.89968888366259        0.04282891812667
C           -3.72332177391686        2.20640590561199       -0.46641811540339
C           -2.61325432287498        2.99799366871959       -0.60229554355323
C           -1.28276973583170        2.68261099935212       -0.28730314520476
C           -0.66612040227066        1.46750267196975       -0.04438664718163
C            0.76379464113899        1.50527503807579        0.11307014889823
C            1.42189217045790        2.75373475234155        0.23185112252269
N            1.94564056992798        3.76724656598092        0.34098642249775
C            1.50543292519867        0.34840641171107        0.09289180733083
C            0.85012568441123       -0.94176148404763       -0.10748796385978
C            1.84775637870088       -1.91061407110753       -0.18279958395539
C            1.69957828647774       -3.28968473272501       -0.37659964736372
N            1.62363584695751       -4.42384971385448       -0.53367672093436
C            3.10461388563447       -1.26014292242065       -0.00991873446869
C            2.91196906653947        0.10052311113569        0.15764425612953
C            3.91804870215232        1.05521904552256        0.35525415538784
N            4.75803718164418        1.81962444566176        0.51785537456866
H            4.05450136667686       -1.76330876388752       -0.01011925906874
C           -0.55310443617957       -1.00089028244680       -0.13179923725864
C           -1.16004869259178       -2.25525927658258       -0.38605875172635
N           -1.60370710850738       -3.26028135479748       -0.71250306194716
C           -1.32221240553641        0.16157137779636       -0.01652691920674
H           -0.61138857595662        3.53425967909383       -0.30483460982095
H           -2.77566421984920        4.01315243222271       -0.93917124959553
H           -4.68015290613547        2.65059389610391       -0.70693633079804
H           -4.75316984061141        0.51714063973506        0.28506448567445
