27
 energy: -46.949769030717 gnorm: 0.000975266542 xtb: 6.6.1 (8d0f1dd)
N            4.69177094929746        1.66273770361314        0.33985761329264
C            3.74187186988982        1.01827332890442        0.27126979151081
C            2.57208560386475        0.24228492395323        0.16790460208516
C            2.63906961638473       -1.06035369485114        0.65326196383703
N            1.85309639980187       -2.05755878969014        0.35701399458271
C            0.65152163665805       -2.03312674501650       -0.18451389260769
N            0.28595506002103       -3.17328425398541       -0.79214856223894
H            0.92904375526348       -3.94719040323097       -0.79082231646204
H           -0.63872593338894       -3.28850907803619       -1.16573702945171
C           -0.31483688821903       -0.97169953985273       -0.06460185389666
C           -1.64956302414212       -1.32292087562209        0.08413190531223
C           -2.63821788245563       -0.35488717165813        0.15059700038315
C           -2.25935373637445        1.05031535664550        0.01730853200484
C           -3.47297759666639        1.75275650646136        0.13165120402496
N           -4.49578173965612        0.92096538927040        0.29923894874792
C           -4.01916432719615       -0.33597031140833        0.32558602462551
H           -4.68574425039900       -1.16797858612310        0.45889985458187
H           -3.62864841897531        2.81482795931777        0.08023937464611
C           -0.94288368377637        1.39656436070654       -0.17386528240298
C            0.07269579412175        0.42703183229509       -0.19558160654955
C            1.41300436875774        0.87852962883457       -0.37521840567331
N            1.62769171666785        2.05925322947237       -0.98574839549229
H            0.86095903604117        2.60689478399430       -1.33440421376854
H            2.55079160388094        2.46302409893546       -0.98053533775928
H           -0.69168915362339        2.44849409546978       -0.21157603226951
H           -1.91979479606079       -2.36336454946369        0.21008510078946
H            3.51018304428319       -1.33777898573515        1.23791168994813
