25
 energy: -48.294896397808 gnorm: 0.000592221173 xtb: 6.6.1 (8d0f1dd)
N           -2.53326357028960       -3.56676185212973       -0.00044415116417
C           -2.39461813092510       -2.42934467549338        0.00013716010965
C           -2.31203207646621       -1.01044366550778       -0.00000353490049
C           -3.52680414861059       -0.34411403399080       -0.00339543726738
C           -3.74635717714958        1.02902018846539       -0.00359633370874
C           -2.78378315769690        2.03195349519095       -0.00074256473540
N           -1.47223710398831        1.97669846900888        0.00137087729944
C           -0.65024029548780        0.94390260217485        0.00285706182342
C            0.72470115307585        1.30552404781147        0.00444110454421
C            1.08693816482049        2.67206594188683        0.00451210956551
N            1.40327236870851        3.77336481895319        0.00302499662305
C            1.68358503475502        0.30607762599657        0.00673269105881
C            1.22556109686135       -1.10714438619473        0.00762094217768
C            2.37005591262718       -1.85986440043685        0.01063292733347
C            3.43839006504198       -0.90375858600252        0.01129773052655
N            4.74103611028394       -1.18025394584652        0.01395464889531
H            5.39321928499878       -0.41420763457867        0.01418613111584
H            5.07154921673311       -2.12874016179197        0.01579370131284
N            3.01320744465967        0.37629758254308        0.00903116352513
H            2.47032338655459       -2.92527470805285        0.01211767337394
N           -0.06322502516903       -1.44955262165098        0.00572593670545
C           -0.97765191711721       -0.50446198831679        0.00322132835988
H           -3.14685950286742        3.05625822587852       -0.00073336353276
H           -4.77776941878223        1.35483400096459       -0.00615199744102
H           -4.40594922637049       -0.97794850798074       -0.00580941080023
