24
 energy: -44.572765777737 gnorm: 0.000899165043 xtb: 6.6.1 (8d0f1dd)
N            5.73808882773663        0.02372190674141       -0.00159026927049
C            4.59448634899976       -0.04398187608309       -0.00052630744105
C            3.17698557578863       -0.13223009783048       -0.00030157968364
C            2.64712017469190       -1.43742423223745       -0.00013908780954
C            1.33168340845101       -1.81222195315904        0.00012755038637
C            0.12698374839141       -1.06747748505178        0.00005570031737
N           -0.93719626666234       -1.85152761666363        0.00016617719482
C           -2.14675274759024       -1.31088676273777       -0.00026842076876
C           -2.36902550271994        0.15987622761030       -0.00075475748024
N           -3.68057824845632        0.43531157593604       -0.00126875382082
C           -4.29083441437313       -0.75052983802683       -0.00089999952402
C           -3.41687568252030       -1.85622643125561       -0.00020958000521
H           -3.69101053389673       -2.89099590359271        0.00015395620148
H           -5.36639294155813       -0.78870793145336       -0.00115681646705
C           -1.26551745936471        0.98722974781671       -0.00051785053000
C           -1.44181666353017        2.39119307882709       -0.00121251051692
N           -1.58747973099380        3.52823295676597       -0.00027234237648
C            0.04019071094073        0.40458471851816       -0.00014951521446
C            1.11469652183897        1.28642367354443       -0.00013170855513
C            2.48906873836931        1.07157404760808       -0.00016783829901
H            3.10251364578659        1.96457969703564       -0.00021128073813
H            0.83073642842345        2.33412510792518       -0.00023384118401
H            1.13355329148844       -2.87761948394650        0.00035723758127
H            3.38073562015905       -2.23427729189060       -0.00017556339633
