27
 energy: -51.759367487850 gnorm: 0.000760714422 xtb: 6.6.1 (8d0f1dd)
N           -0.70052085549988       -4.35927988378371       -0.13827461481603
C           -0.91890846182644       -3.23333993074730       -0.10604688388417
C           -1.28866087428954       -1.86492484455357       -0.08036330015964
C           -2.66528976398721       -1.68903860978293       -0.22668532814275
N           -3.41690395475685       -0.62628392813158       -0.08682202877470
C           -3.03069117684819        0.62500735769412        0.08764392103129
N           -4.04506658036348        1.45998328666788        0.39698511813698
H           -4.97067313994195        1.06907742341743        0.42817648863026
H           -3.91533233356124        2.45496310512271        0.45702778164683
C           -1.71998950671979        1.18109074381512       -0.08230271990253
C           -1.73920941011874        2.59292156631036       -0.17038346251709
N           -1.85839554833578        3.73473964666964       -0.23378421864916
C           -0.46245043077977        0.55175670533525       -0.12614925796913
C            0.65045989686892        1.39350790360446       -0.26820498330496
C            1.92542599519710        0.89547242458165       -0.13858930392795
C            2.13355747025005       -0.53948623937088        0.14774790421020
N            3.43194400676393       -0.75991599302298        0.25957668208603
C            3.97986818913459        0.47532022446380        0.04713884126520
N            5.29636478678007        0.65293085748872        0.07712124466884
H            5.67210006637679        1.56995879100179       -0.08655411734860
H            5.89235900037233       -0.13669329484429        0.25090723939181
N            3.12185590761259        1.48543233182546       -0.19175881554248
C            1.04104828014909       -1.39300001650032        0.21064056063708
C           -0.24494832202748       -0.90513234137557        0.03456550654990
H            1.20399268976196       -2.44984562193344        0.35814250974151
H            0.50824820726548        2.45049643690816       -0.43380566231832
H           -3.24289711257661       -2.58742659656006       -0.42706963333843
