24
 energy: -49.361805950764 gnorm: 0.000817305432 xtb: 6.6.1 (8d0f1dd)
N           -5.92805486413486       -0.07673989804843       -0.52461237685998
C           -4.80144733034143        0.04561973031576       -0.35122203197713
C           -3.40951678279133        0.20488005953661       -0.14908520989893
C           -2.95578732657301        1.52439323275713        0.04103455018294
C           -1.67350327233120        1.97823162894394        0.17245861565687
C           -0.43575219393150        1.30101838319127        0.02285091401345
N            0.63072929915754        2.08508714972839        0.03585818717295
C            1.83904826498751        1.61330914957912        0.11794390255218
C            2.02787387620749        0.12630041584304        0.08035212244288
C            3.40911371456751       -0.04292658324169       -0.10943964379814
C            4.11236286327322       -1.24735956804231       -0.22497025291008
N            4.70642974138676       -2.22305556656774       -0.32984961830668
C            3.94296029032387        1.25900389898496       -0.06766736014439
N            3.01047203492076        2.20972284092627        0.00753899235917
H            4.98316857080138        1.52509648657191       -0.11519952053612
N            0.97847367831700       -0.63022630460407       -0.04080328452525
C           -0.24907323299673       -0.14533082200300       -0.01524365948877
C           -1.29358276716125       -1.11610010762264        0.08973190809105
C           -0.84260152876833       -2.43588984453704        0.35668823840304
N           -0.51168898101064       -3.51208960849600        0.56774311344164
C           -2.66182991017047       -0.96991400710289       -0.04051117410992
H           -3.23134758748313       -1.89347090328489       -0.03217330556194
H           -1.54462830247634        3.02755023152891        0.40488382163077
H           -3.73716832857227        2.27256455674309        0.10287824496982
