28
 energy: -57.061693053949 gnorm: 0.000765006670 xtb: 6.6.1 (8d0f1dd)
N           -1.58088497519705       -3.90653561272720        1.13948364759576
C           -1.65638772353787       -2.86012828016239        0.67817083258273
C           -1.89286632510813       -1.51823431934151        0.26279733573742
C           -3.24356821559161       -1.18571739342364        0.34805227204887
C           -3.85900663727496        0.00392428024737        0.00019926824375
C           -3.24127549072383        1.19238129177039       -0.34761728314326
C           -1.88992933707292        1.52229030571464       -0.26240032525278
C           -1.65112564004365        2.86396776925922       -0.67724313566897
N           -1.57248356639276        3.90976476455520       -1.13924462627004
C           -0.75236756326467        0.73359822814327        0.04274589401550
C            0.45928897440727        1.40037357237539        0.31382930183707
C            0.50875365332189        2.74635772656023        0.74000479513614
N            0.60733840574720        3.79097403442665        1.20252560253570
C            1.66497394413139        0.70468761480075        0.21614957394079
C            1.66356980366009       -0.70766309216738       -0.21595494196057
N            2.91782185583130       -1.10178414626607       -0.35095985286948
C            3.63751381974795       -0.00344498800597        0.00005131566884
N            2.92001672991541        1.09631461138130        0.35110030659220
N            4.96051048116218       -0.00476308955644        0.00001259992471
H            5.45277073926790        0.82879823512816        0.27211032198795
H            5.45109143210272       -0.83931558955151       -0.27208396820630
C            0.45650935223962       -1.40096548787811       -0.31355649399578
C            0.50330907959042       -2.74707760593519       -0.73963732441490
N            0.59976429233425       -3.79192144560891       -1.20207976018025
C           -0.75380934873097       -0.73177356286500       -0.04247634593260
H           -3.88963633833789        2.00145322705785       -0.66143053904613
H           -4.94051410447653        0.00496825025050        0.00018776125370
H           -3.89349560900783       -1.99351474998049        0.66190516343944
