27
 energy: -52.526494639018 gnorm: 0.000624521763 xtb: 6.6.1 (8d0f1dd)
N           -0.11837895836255       -4.49012160370700        0.74582151480078
C            0.30836509716933       -3.44516732252610        0.54583948913948
C            0.88418695251955       -2.17050354739127        0.33050131007963
C            2.24470497611148       -2.06968519190738        0.50836799004760
N            3.05955098761129       -1.09352410570347        0.12984616672031
C            2.77268449484428        0.12245112307616       -0.22901000832994
N            3.75506821340074        0.80107362350273       -0.84654607464806
H            4.63503240281118        0.33141818995872       -0.97816576293300
H            3.68119375955097        1.78551735293167       -1.03985943367140
C            1.53060958939878        0.84776192960167        0.05616404309910
C            1.70251186729467        2.25119454341978        0.02682243554555
N            1.97538306049038        3.36072643191766       -0.09430376448421
C            0.27762591442470        0.29777634997788        0.20991239032019
C           -0.05615225467719       -1.12365798098952        0.00929944346323
N           -1.24969514629813       -1.52933252814088       -0.31898109372477
C           -2.25457220295423       -0.64819703169767       -0.40617952420100
C           -2.09277603770722        0.74941751218761        0.03621967655110
C           -3.39169222840702        1.35921854810946       -0.01243475718046
C           -4.25956245871325        0.41828889848631       -0.47092479617148
C           -3.57594505883179       -0.83251109945269       -0.70242142419064
H           -4.03722212083089       -1.74259780352812       -1.03204456873994
H           -5.31293930039364        0.55854930230760       -0.63363542972448
H           -3.59974481257595        2.37945244369430        0.24769999476913
C           -0.85609202688408        1.18438571229374        0.41549939655119
C           -0.72223089285492        2.45525910010414        1.02032710999128
N           -0.72304964213896        3.45115171531190        1.58898685090151
H            2.77095967780996       -2.93539728303338        0.89591108090794
