32
 energy: -64.745840541253 gnorm: 0.000616827133 xtb: 6.6.1 (8d0f1dd)
N           -5.98700445751104       -0.63823060423850        0.00124330932422
C           -4.84427537222317       -0.51699010487133       -0.00002486914821
C           -3.43721511164132       -0.38324968263528        0.00011066679828
C           -2.72115996986283       -1.58804959684511        0.00040332934967
C           -1.31031439083010       -1.73994046196247        0.00007080916006
C           -0.27875481578944       -0.83785443560832       -0.00013575241590
C           -0.38615142694108        0.62132272309647       -0.00009118264983
N            0.66908686451938        1.41634407441272        0.00013712156194
C            1.88844963124213        0.90472594799622        0.00015036063251
C            2.13717667122233       -0.54551762250428       -0.00017361950909
C            3.55961992136508       -0.72964414266417       -0.00004947684339
C            4.22601217566718       -1.95947358090817        0.00004416787076
N            4.77689952956903       -2.96685040402367       -0.00103576441298
C            4.13706546694982        0.52505175730989        0.00026604371624
C            3.12795567393714        1.53864806019987        0.00046170324813
C            3.37685822527581        2.91358386742152        0.00117352325498
N            3.61243027803211        4.03754424799348        0.00110292055242
H            5.19369094812607        0.72539151403901        0.00049778399822
C            1.06261992833100       -1.39058579971496       -0.00023167885929
C            1.24209740466765       -2.79426941903405        0.00022057802599
N            1.35976943508277       -3.93497301333843       -0.00121307420644
C           -1.60603578535282        1.35308705993480       -0.00037069283515
C           -1.38856831183968        2.75660519523463       -0.00004835762761
N           -1.31244089792862        3.90190434163972       -0.00187815833971
C           -2.95364022707868        0.95949710751575       -0.00041863256240
N           -3.88751624510637        1.93534515600395       -0.00093039566113
H           -3.60331269608180        2.90104808236271       -0.00113061959849
H           -4.86838502778973        1.71336380175965       -0.00081557046183
H           -1.00283456101744       -2.78167617517287        0.00003754208322
N           -3.41843902702471       -2.74434561425104        0.00092249446653
H           -4.42475336595732       -2.74116387829958        0.00119432136390
H           -2.94062298431144       -3.62838776424817        0.00107982742439
