31
 energy: -65.034140870048 gnorm: 0.000860621036 xtb: 6.6.1 (8d0f1dd)
N           -2.36936130149433       -3.62371341318310       -1.29599301741093
C           -2.36403226631324       -2.56654632401524       -0.85242241764366
C           -2.45616958929654       -1.22348810938602       -0.40792565673317
C           -3.72270523032127       -0.64806676785640       -0.64598387171269
N           -4.22084373784988        0.47565239229399       -0.21651764269537
C           -3.52506282742693        1.42081559619109        0.42346565194964
N           -2.24483447567244        1.70087261864775        0.23096909332725
C           -1.23972653823892        0.91631989648472       -0.04163206691237
C            0.00335979283022        1.55621737180737       -0.30496669612055
C           -0.00046949307532        2.95114229541946       -0.51990856447091
N           -0.02453785403046        4.08239180640386       -0.70221704617782
C            1.18191990203920        0.83405720682159       -0.20442248137344
C            1.14224689255004       -0.58654828533341        0.17096927156390
C            2.45208732780565       -1.02483828480107        0.31616302631027
C            2.94178439302155       -2.28232363652862        0.67245104812967
N            3.44401034310195       -3.27462315629683        0.96133246509112
C            3.32224654563461        0.08761597238273        0.01763105932116
C            2.52984404460460        1.21874870392557       -0.29663186410722
C            3.06048720582127        2.46784778235511       -0.62775146360070
N            3.57706804894648        3.45914118176006       -0.89278873586573
N            4.65054052010964        0.03665768913378        0.04128605643902
H            5.12045952277932       -0.82360708989159        0.27492798070715
H            5.19272579045877        0.85642992149378       -0.18051484482384
C           -0.08668693374282       -1.26081293100690        0.24924557633368
C           -0.09240174685826       -2.62936919226767        0.60026945170543
N           -0.06274015797457       -3.71074349906237        0.98010392521406
C           -1.27897233096798       -0.56379532916343        0.01174055846967
N           -4.22046423378768        2.27098671999333        1.18702735072522
H           -5.22214436904555        2.19052327169425        1.21586381486729
H           -3.76722976335977        3.09728749399903        1.53799641943559
H           -4.42474677233920       -1.25196170263004       -1.21253133965029
