23
 energy: -44.849968609978 gnorm: 0.000696555811 xtb: 6.6.1 (8d0f1dd)
N            5.99160009812580        0.63353875400470       -0.29994826432116
C            4.86338115404404        0.45673812382656       -0.19535533895616
C            3.47077020367831        0.23819892809177       -0.07233456388815
C            2.67113891934256        1.38887346625472        0.03676270798633
C            1.30758863467642        1.47784053352064        0.11103749671547
C            0.30909129880407        0.48015564178246       -0.00645326818436
N           -0.93383598310700        0.94304777835674        0.00489112408185
C           -1.95198039600570        0.13411213175024        0.09920930433505
C           -3.34265190982490        0.27429039884538       -0.03848684973832
C           -4.07982635459413        1.46098197883630       -0.06884275694475
N           -4.69140728339836        2.43194027439298       -0.09989228263979
C           -3.83771208371337       -1.04557185001250       -0.05520168003793
N           -2.88241519590736       -1.97430198698733       -0.05068583422965
C           -1.72298215717087       -1.34256708007083        0.05474903159339
N           -0.50622947543012       -1.79042227157022       -0.06291746020194
C            0.53317135431747       -0.96188036048852       -0.03576116520138
C            1.78698342358966       -1.60484081412765        0.08057072058592
C            3.06045664301773       -1.09938995269313        0.02278639926816
H            3.86368771788722       -1.82603301741611        0.06071826006606
H            1.69184359959679       -2.67256117347518        0.23369074366150
H           -4.87217770943103       -1.33652757184317       -0.09078621209033
H            0.89025134073285        2.46174925380605        0.28646029111888
H            3.21541860066833        2.32484188751736        0.08319163162312
