28
 energy: -47.481106020686 gnorm: 0.000849311557 xtb: 6.6.1 (8d0f1dd)
N            3.31973564632624        3.12342606091463       -0.00132771988476
C            3.00873466533979        2.01889334599130        0.00259032128599
C            2.72014491867494        0.62680952311189        0.00072273978193
C            3.89059057537177       -0.13052346734177        0.00119894571438
C            4.04203479987208       -1.50766838560453        0.00121116063258
C            3.04256472938608       -2.46627526681756        0.00086698028174
C            1.66920502502582       -2.28311434868736        0.00038355883295
C            0.86736987851896       -1.13657407557657        0.00009442398164
C           -0.51532493676661       -1.36458494741721       -0.00043086274090
C           -1.42386984642283       -0.32930756164673       -0.00088428199180
C           -0.94767381352536        1.05675034119029       -0.00066717906587
C           -2.05416712544020        1.89393751294336       -0.00162207717033
C           -3.20900339424971        1.09068517400025       -0.00250802401239
N           -4.48248337205424        1.51977105777107       -0.00129809632332
H           -5.23537700152963        0.85379871948392       -0.00923594711204
H           -4.69167401344893        2.50151114044928       -0.01022524552248
C           -2.82553736609105       -0.28765891995383       -0.00190575286383
C           -3.71310000212538       -1.35646585968872       -0.00326446186671
N           -4.48001949782222       -2.21634921411727       -0.00503039429246
H           -2.04473774881011        2.96728558119789       -0.00178369320839
C            0.41901511324031        1.29499099655993        0.00001812441051
C            1.34948272137023        0.25960115570783        0.00025767962352
H            0.76678283428510        2.31813272085863        0.00017290082812
H           -0.87839996847566       -2.38321880345956       -0.00054784011985
H            1.09963009365885       -3.20628190999206        0.00017903870108
H            3.37546599034278       -3.49635252579523        0.00099219230094
H            5.06112612971981       -1.87199542228073        0.00159348183872
H            4.80687767912917        0.44878302329887        0.00158377856100
