27
 energy: -47.747613764757 gnorm: 0.000755036009 xtb: 6.6.1 (8d0f1dd)
N           -4.81654965492076       -1.08763254954665       -0.00161875404444
C           -3.94325068222212       -0.33969268199846        0.00034657935933
C           -2.91239105949164        0.60091327836954       -0.00038573006665
C           -3.09945247816295        2.01844816592790       -0.00063881722760
C           -1.88743158484166        2.66921887131275       -0.00056382849553
C           -0.87399604909849        1.69028156942046       -0.00034230966917
N            0.42197926772981        1.84227551321495       -0.00019266599400
C            1.22298893509348        0.75656919627832        0.00001376868616
C            2.56218995040210        1.11393345923111        0.00013759153109
C            3.75526726526958        0.37285405406992        0.00023443393467
N            4.91312251286515        1.08607359820622        0.00192182272812
H            4.89299014764619        2.08892964600722       -0.00311244374735
H            5.80158080241411        0.62046243809007       -0.00313519257962
C            3.85224097595646       -1.02178284100828        0.00019404567263
C            2.83193437438308       -1.95640582712678        0.00019644185977
C            1.46070635836961       -1.77337660234652        0.00010989770636
C            0.68395796834367       -0.60986338836860       -0.00000264902780
C           -0.72492727435632       -0.76293276423965       -0.00021654353276
C           -1.30920712729851       -2.04965904021202       -0.00093388910880
N           -1.77838199091179       -3.09697191827296        0.00058771027059
C           -1.54115966868203        0.36492633280968       -0.00034436991895
H            0.88115611499572       -2.69037686518209        0.00011718717457
H            3.15512395030827       -2.98952006854102        0.00021402168821
H            4.86076103771549       -1.41803368545048        0.00026188593740
H            2.69008255067057        2.19124809627217        0.00020130623119
H           -1.72601361041425        3.72907679484821       -0.00056740972093
H           -4.06830587316220        2.48663292873549       -0.00067770714655
