27
 energy: -52.553940524313 gnorm: 0.000608676765 xtb: 6.6.1 (8d0f1dd)
N           -1.48854745473665       -3.91996736150981        0.00012927140803
C           -1.75385419326140       -2.80559525227510        0.00135641983182
C           -2.19325384023907       -1.45063087496508        0.00050702425286
C           -3.56668028380877       -1.28967804328561        0.00145198017146
C           -4.30199687422050       -0.10805683413948        0.00162122531033
C           -3.82005546447573        1.18691283365807        0.00085885751387
C           -2.50513363112666        1.63452427340936       -0.00023484111133
C           -1.29012544702813        0.94785120021073       -0.00081731976373
C           -1.12260611136443       -0.50737895716481       -0.00047573312440
N            0.05826174586814       -1.10181974760844       -0.00105655730248
C            1.15681275357630       -0.36342700235565       -0.00195737321814
C            1.12963204568024        1.11250461371009       -0.00245053517322
N            2.36255526478003        1.62541158131306       -0.00341612189780
C            3.19464522344939        0.57453593988741       -0.00365863908361
N            4.51552468026070        0.72572367423271       -0.00463492630340
H            5.12106785409711       -0.07756932487791       -0.00479907062729
H            4.89815729391798        1.65600390326964       -0.00516253217148
C            2.50281633930444       -0.69727855339241       -0.00296954423419
C            3.14539731192944       -1.93133826609342       -0.00375945111269
N            3.75268766667706       -2.90752496877695       -0.00138847867044
C           -0.10464082820483        1.74053378562697       -0.00190471366782
C           -0.16136579957864        3.15211500189492       -0.00282968793659
N           -0.19710355436633        4.29865492908679       -0.00210802010921
H           -2.39785325116761        2.71449842756454       -0.00066961746679
H           -4.56839447168282        1.96921972010790        0.00115794743800
H           -5.37802953785148       -0.22197681868974        0.00246272243116
H           -4.13819358222776       -2.21045898203783        0.00215112231708
