27
 energy: -52.532534187961 gnorm: 0.000915960561 xtb: 6.6.1 (8d0f1dd)
N            4.73449542041642        0.85039608650555        0.94262557158869
C            3.91304223560597        0.12752518885481        0.59227492146671
C            2.95393980800086       -0.79391355765341        0.16820045428433
C            3.26163246204380       -2.16645968042384       -0.21067735228717
C            2.13042067780968       -2.82336292320780       -0.56436118898748
C            1.03314719102846       -1.90676062917625       -0.42139886302542
N           -0.22733992266806       -2.13040238761167       -0.57196271665320
C           -1.11030534478044       -1.11880282986003       -0.30193564344575
C           -2.39389563825077       -1.57387682039866       -0.15670475883550
C           -3.55126195189601       -0.84755000177004        0.28111198504828
N           -3.78308978555438        0.43205061130096        0.12590130747430
C           -2.93195763741444        1.36143625141157       -0.27646363284979
C           -1.54720758943646        1.36327090241160       -0.29966978093166
C           -0.99056662231915        2.60867241201942       -0.68182983182914
N           -0.63720539180310        3.62013693411546       -1.09118698654815
C           -0.65213073265415        0.25842698322739       -0.10468289607362
C            0.70494121259143        0.47235438169271        0.13348017354277
C            1.21293267419552        1.72867925128144        0.53821506321134
N            1.66507243005330        2.69202527038966        0.96480035917755
C            1.59496887502017       -0.61672717839124        0.02641062983823
H           -3.42252928710528        2.29404764027819       -0.53797808997960
N           -4.55568921245642       -1.56233679172050        0.82007578148368
H           -4.48625806700392       -2.55527313833897        0.94848294818112
H           -5.38274759528660       -1.07484109601420        1.11897061582033
H           -2.51456024957097       -2.64001378369577       -0.30262087163717
H            2.03477001374264       -3.84089487652736       -0.88692887732326
H            4.26089699778928       -2.56307355150059       -0.19812941780925
