27
 energy: -51.748018834372 gnorm: 0.000493411564 xtb: 6.6.1 (8d0f1dd)
N           -0.71973334224477       -4.39188566559849       -0.00147816630510
C           -0.93435996308422       -3.26458971351967       -0.00095210363250
C           -1.28206880652771       -1.89026258521286       -0.00122727839901
C           -2.67592049587691       -1.69706677720770       -0.01005587327220
N           -3.41587703811849       -0.62690044953573       -0.01290949292678
C           -3.01328859148104        0.64672471028929       -0.00811900955567
N           -4.04496468785430        1.51632362070676       -0.01271927419863
H           -3.89380642224246        2.51004354544421       -0.01027890464937
H           -4.97547841337126        1.13720939002696       -0.01922369366589
C           -1.69546336095151        1.16121739972787        0.00068648569703
C           -1.59955161163977        2.57409174279803        0.00318626073055
N           -1.62960862538995        3.72248179174556        0.00470467851151
C           -0.43502285086799        0.51377353085786        0.00766955782764
N            0.56400222683225        1.37574503216973        0.01514479177735
C            1.81442888189200        0.92001763829239        0.02261166427222
C            2.12990744768840       -0.53162507742536        0.02283181953747
N            3.44769969622550       -0.73351085716069        0.03111204315470
C            3.99371459812725        0.50217224181235        0.03621072387656
N            5.31866520624422        0.65095841676961        0.04500369956761
H            5.73811240826591        1.56346395731349        0.04889812538126
H            5.89483246096123       -0.17337535401528        0.04770999254742
C            3.02753678134383        1.55802541952574        0.03126999696273
H            3.23430929186078        2.60793461668154        0.03394080328988
C            1.08619999543958       -1.43104723300976        0.01490456548868
C           -0.22948795610042       -0.95145136630314        0.00701951525209
H            1.27877128572774       -2.49401147181834        0.01471515786171
H           -3.26627827835785       -2.61082347735430       -0.01557409513122
