20
 energy: -40.881675378396 gnorm: 0.000981186455 xtb: 6.6.1 (8d0f1dd)
N           -5.49267632964190       -0.07069977591244       -0.32690072695527
C           -4.35194356861303       -0.03846858010809       -0.20509189907240
C           -2.94774038707581        0.00898112679031       -0.09047028628564
C           -2.26618908185901       -1.21157387252599       -0.06094706368294
N           -1.01165205321274       -1.46436524823701        0.17407407914216
C            0.06693911415115       -0.70782001260529        0.11355888195208
N            1.22706452240375       -1.30050467245924        0.31283491630324
C            2.37114413641889       -0.69854548503310        0.31776010416257
N            3.61548439928626       -1.11868652794441        0.25558294114596
C            4.33435332559654       -0.05185818617865       -0.11279892723836
N            3.64371105138107        1.04692879377706       -0.41745968161872
C            2.39434126757388        0.76143728967213       -0.11321060390139
N            1.25279341355682        1.32861296807952       -0.31195289601894
C            0.09835928717466        0.75703061905935       -0.12993738568777
C           -1.03392173746748        1.59641780855651        0.11664187255711
C           -2.35558046280302        1.28004871100793        0.12777643521102
H           -3.04984863747091        2.09134264160219        0.31106088526418
H           -0.76088423180274        2.61711258925435        0.35147457642263
H            5.40333283398043       -0.09323080517317       -0.19969907514869
H           -2.86974926897899       -2.11255236042440       -0.13775633284923
