26
 energy: -52.808312297453 gnorm: 0.000308230982 xtb: 6.6.1 (8d0f1dd)
N           -1.77828265418370       -3.87451032513897       -0.00537631770033
C           -1.87776101472346       -2.73308316127193       -0.00300337382994
C           -2.08217179163566       -1.32910951229163       -0.00061065396269
C           -3.41341378752873       -0.92899591336227       -0.00005635786094
N           -3.97846622254219        0.26121991183531        0.00214163132848
C           -3.38511392471500        1.44209072952591        0.00360257533345
N           -4.23642648862875        2.48254021200484        0.00573778978478
H           -5.22313520658158        2.28611817328208        0.00624315414670
H           -3.91430883390537        3.43372187700906        0.00703832874996
C           -1.99251889530828        1.75291601842219        0.00299189427907
C           -0.89804219686773        0.92481703269358        0.00250568663361
N            0.28662102824551        1.61422757998281        0.00266342972759
C            1.37539315109399        0.92013371948784        0.00045283707119
C            1.37660456063757       -0.56144914920598       -0.00084046695903
N            0.23308732911604       -1.23544007866153       -0.00036996866859
C           -0.89179727676897       -0.54187834556215        0.00096419106257
C            2.69990372057739       -0.97422139659613       -0.00081368962652
C            3.18587537856148       -2.28520042644996       -0.00135088539930
N            3.61085536096556       -3.35175550322203       -0.00112088985906
C            3.52398707206055        0.20222518012376       -0.00026792859882
C            2.75065143436077        1.34241434052581        0.00075486784774
C            3.18450244965691        2.67190155768131        0.00148028124788
N            3.52913791341369        3.76700699398084        0.00221088963655
H            4.59967488597356        0.17712323000182       -0.00042100284360
H           -1.74081711214380        2.80735200282530        0.00282279005078
H           -4.14619786772976       -1.73173746861999       -0.00158405609142
