27
 energy: -57.328684588710 gnorm: 0.000857911198 xtb: 6.6.1 (8d0f1dd)
N           -6.42478641624996       -0.93426663479752        0.16210815724452
C           -5.28903659428072       -0.78009808632629        0.14756130864551
C           -3.88860774954642       -0.58649606022073        0.15980198029526
C           -3.09695534397187       -1.69078410634830        0.55375568964714
N           -1.83184868253195       -1.86183657502822        0.36227942996387
C           -0.83722938802403       -1.03258328796407        0.14508782786766
N            0.33176094879481       -1.58370097659845       -0.15388357455793
C            1.41877455483051       -0.85174154170049       -0.21645939740460
C            1.35778280300040        0.59258845111553        0.14722907558086
N            0.18692115111205        1.16111560881372        0.27746311528452
C           -0.91449812270244        0.45257010994651        0.18552111746646
C           -2.10138966392800        1.11944380325926       -0.23604251728140
C           -1.89690616692977        2.42372754306938       -0.75727708135981
N           -1.75536084662819        3.47938996063052       -1.17942198778578
C           -3.40629381433378        0.64587441695808       -0.28176408705930
H           -4.14401669266012        1.34227426214827       -0.66577487177380
C            2.66349077012681        1.04251304329493        0.32788636883841
C            3.09964473328285        2.29606153744601        0.76290384610376
N            3.51979644636255        3.30464231826745        1.11682386821889
C            3.53722696032095       -0.03678517988080       -0.01065173510483
N            4.86548915018534        0.01774504519705        0.00426336038725
H            5.33523027671525        0.87081295242276        0.26280730346488
H            5.40969545165488       -0.79823779037602       -0.22635425311499
C            2.76329926483425       -1.20227740479492       -0.31317988152344
C            3.31716151832972       -2.44898805643790       -0.61319829406660
N            3.83320197113580       -3.44473076658390       -0.86037592457971
H           -3.61293898990224       -2.56224003721550        0.94495711300492
