26
 energy: -53.592572584989 gnorm: 0.000832904554 xtb: 6.6.1 (8d0f1dd)
N           -5.61890759233974       -0.96069457726717        0.37328357555141
C           -4.48729593585312       -0.80351224191641        0.28926489388508
C           -3.08871722798717       -0.59794453238983        0.20843965905780
C           -2.25477305758524       -1.61956377392610        0.65605996451065
N           -0.99221774857037       -1.76683101286695        0.33531385963475
C           -0.05248561981874       -0.94654930403939        0.00311617070926
C            1.21414709429664       -1.54561277300869       -0.34523493456110
C            1.24614401019149       -2.92103605166443       -0.66849574406282
N            1.24989353969889       -4.03022901569748       -0.95229425530542
C            2.35009344548904       -0.79498995667761       -0.20763134219228
C            2.28173222136181        0.61402745976073        0.22979698109022
C            3.58374168057082        1.00603991818270        0.37999863346867
C            4.36622896937897       -0.14245115469787        0.01539350193853
N            3.65059548965381       -1.18359036467402       -0.32835165371444
H            5.44031356058549       -0.19522431596161        0.00550346395779
H            3.96082027025963        1.96053966417041        0.68824654749489
C            1.02113064877132        1.25941397622620        0.30591906256769
C            1.00109994881511        2.63483208327393        0.62991722780317
N            1.04181464384386        3.72896490591413        0.96936209046574
C           -0.13402376514654        0.52957358068078        0.09123602960725
C           -1.36778915458697        1.14851927399372       -0.29521581188368
C           -1.26104540470237        2.44690904968963       -0.86801603976386
N           -1.22850338372737        3.46312413164112       -1.39523812739198
C           -2.64745295273264        0.63057783285653       -0.32583504832753
H           -3.41677966549135        1.28142847137424       -0.72535456880193
H           -2.68153012559273       -2.46044414277350        1.19010362555701
