31
 energy: -60.222540822676 gnorm: 0.000578533402 xtb: 6.6.1 (8d0f1dd)
N           -5.66865566841625       -1.31631231720285       -0.49187843011720
C           -4.54493369870144       -1.09932256994309       -0.39880901862590
C           -3.16696818408395       -0.81512549406585       -0.29437169116844
C           -2.29176723221223       -1.82522452996007       -0.70349177328869
N           -1.02383089119717       -1.94859378329126       -0.43910815172258
C           -0.10443035505619       -1.07502043793926       -0.11321128629167
C            1.16185542949675       -1.59216022860615        0.24132567678696
C            1.29168023872871       -2.96823629181566        0.51812442216584
N            1.42694320680131       -4.07791535962441        0.77604395279377
C            2.29422379794541       -0.77943841390020        0.19082885161021
C            2.15613603072927        0.62653039775856       -0.26376624351778
C            3.41308665463469        1.15704005032401       -0.37042271950971
C            4.34185224608219        0.13997613650184        0.02087254470969
N            5.66864667659508        0.29584292540293        0.04807801229347
H            6.08505914158648        1.17094195552196       -0.21950515415482
H            6.26606933142896       -0.46203218293077        0.33034997615828
C            3.64046341584174       -1.03661656436656        0.36227635881404
H            4.07866383162519       -1.96320514095671        0.67770646268842
H            3.67179450266612        2.15217420913695       -0.67628163004123
C            0.87036982859613        1.18239541242108       -0.42024990371832
C            0.78485239251743        2.53001762146483       -0.82544966280968
N            0.78329805367977        3.59808771393682       -1.24679048874187
C           -0.26768633593821        0.40073343708426       -0.20078350339053
C           -1.49638096473906        1.00409161870472        0.14878832854311
C           -1.41415009523883        2.33806938502716        0.62010125952580
N           -1.43018717375032        3.38356874851157        1.09578179927221
C           -2.80306588016258        0.45506261330163        0.22526684696103
N           -3.78912154312601        1.21843010409533        0.74480570673075
H           -3.60810877922839        2.16572892766434        1.03226612168368
H           -4.73916394236755        0.88722253211104        0.72628713231106
H           -2.72564962123836       -2.68953390086656       -1.19569329684811
