23
 energy: -44.054576991154 gnorm: 0.000817311200 xtb: 6.6.1 (8d0f1dd)
N           -0.77551410856828       -3.85743040121790       -0.25453789578716
C           -0.97419208955310       -2.73063159096616       -0.17709783347257
C           -1.27455810527261       -1.35209693302239       -0.07102807487485
C           -2.58928361864021       -0.98871987966728       -0.35997984544102
N           -3.19868481280929        0.16288590094524       -0.19932427392221
C           -2.60095275786234        1.30718318964336        0.11561496767542
N           -3.38416883623258        2.26973763875828        0.62879479923504
H           -4.37086805963936        2.09587290617309        0.70571239480559
H           -3.02528506694165        3.20380017221086        0.71851525588724
N           -1.35792058350841        1.66081086981058       -0.19748617745160
C           -0.26952941763467        0.94788796818037       -0.21787987399736
C            0.92780758345682        1.59632703814602       -0.62707113413890
C            2.11885747711239        0.95661630455489       -0.45723400844834
N            3.39032445548753        1.39014951260075       -0.59558018270418
C            4.14992555647792        0.49756704921565        0.01411508333590
C            3.43045365511132       -0.57594356949796        0.59847011843247
C            2.11827516198179       -0.36191918559524        0.24192430840017
N            0.99308219990554       -1.03229746182322        0.43339441615604
C           -0.15788772491208       -0.48968083619198        0.15917284427163
H            3.83857126104284       -1.40231080232030        1.14356545088513
H            5.21883385848936        0.62333335448261        0.02624276351934
H            0.86784953652672        2.63179947529844       -0.92450438461799
H           -3.24627675651813       -1.77739611321833       -0.71373259114764
