29
 energy: -56.775884893885 gnorm: 0.000977894054 xtb: 6.6.1 (8d0f1dd)
N           -5.33864373604511       -2.18377912731441       -0.26596884016027
C           -4.31457245807739       -1.68306733579503       -0.12380150061637
C           -3.06768754552542       -1.05216289384343        0.05982409867788
C           -1.99566082675173       -1.90592822862377        0.48082190468921
N           -0.73586447894493       -1.70829997636203        0.48021876297769
C           -0.00551907267759       -0.59896588868839        0.22538861741481
C           -0.50742473072419        0.77519680042236        0.25509090327734
C            0.45287023184710        1.84082294618342        0.34257577756601
C            1.77353721158594        1.59613894373927        0.17097658439871
C            2.26620493919418        0.24323121952920       -0.04366325582650
C            3.63706281075944        0.32492666115093       -0.21160004500009
C            4.54657381230897       -0.70574371564143       -0.44688335556469
N            5.33208794409239       -1.51937493468640       -0.65127381928746
C            4.01633028879228        1.72976588828603       -0.10094940694480
C            2.91780510848108        2.48098412422576        0.12888480806125
H            2.86773917116647        3.54510501285634        0.25551427061446
H            5.03117251470685        2.07050814282599       -0.19351521712863
C            1.35492853711644       -0.83054422876093        0.03929486204235
C            1.81558924088997       -2.16508951103213       -0.03610210835375
N            2.19716125092326       -3.24296325799528       -0.11036992265426
H            0.09794378037911        2.85057611341487        0.49176006168301
C           -1.83957099001985        1.14161969476774        0.12034691867338
C           -2.13423552283090        2.52837905898845        0.14867016184058
N           -2.44389914609104        3.63400641442586        0.17634863224124
C           -3.01098453027586        0.32541467205983       -0.13790613070143
N           -4.12298968724571        0.96940797040805       -0.54464881172591
H           -4.97306035532910        0.44833765584001       -0.68762487606191
H           -4.14869234965536        1.97212342841740       -0.62567315522814
H           -2.29226331974857       -2.90391436229885        0.79075832909612
