27
 energy: -52.534324254363 gnorm: 0.000367881694 xtb: 6.6.1 (8d0f1dd)
N           -4.89771205537175       -2.00846882299024       -0.00028254575551
C           -4.19874732091935       -1.09632110458510       -0.00047324116098
C           -3.33950051783464        0.00188480012607       -0.00032524730465
C           -1.94012097167009       -0.00026636952422       -0.00029975662467
C           -1.57388476103435        1.43953401657721       -0.00028454212788
N           -2.66857758797137        2.20857198123843       -0.00019702089145
C           -3.70147367985052        1.37424280664070       -0.00016476802608
H           -4.70664221400788        1.75845024070423       -0.00004973446306
N           -0.33189152385360        1.84291198903248       -0.00043465377366
C            0.65679370383851        0.94295358135986       -0.00056530474210
C            1.91355212574390        1.56441579571303       -0.00057304359460
C            1.86879845762684        2.98743715180877       -0.00041708587756
N            1.93906374081042        4.13075581113520       -0.00005140573514
C            3.21064561036817        1.02963270769848       -0.00085171658846
C            3.60146131311688       -0.27938282895052       -0.00107842537823
C            2.81890345525879       -1.45577220696100       -0.00092749239903
N            3.51181863120579       -2.61994402727094       -0.00110827895966
H            4.51573591615164       -2.61002436748400       -0.00105456745544
H            3.03958408698849       -3.50786276057692       -0.00082354115421
C            1.40624102693477       -1.51977780697863       -0.00059980915761
C            0.92020152447246       -2.85509313270149        0.00021512647417
N            0.61243668384100       -3.96117320013425       -0.00015808129429
C            0.41009226934473       -0.51161264015301       -0.00062740392253
C           -0.92834655100190       -0.93358854954666       -0.00053283136464
H           -1.16602159939381       -1.98878857617497       -0.00068682068035
H            4.67048010536303       -0.45587031949653       -0.00130096827507
H            4.00332197484383        1.76790655059400       -0.00091730416731
