32
 energy: -59.162310196250 gnorm: 0.000776285030 xtb: 6.6.1 (8d0f1dd)
N            4.23803394015765        2.86526712628620       -0.40557730156916
C            3.68601004516213        1.86339958254695       -0.26911075544522
C            3.07576396250234        0.62605457789582       -0.10253290686348
C            3.77692958995764       -0.60282570827650        0.07577248096380
N            5.11044858811818       -0.71978647464193        0.10202593569695
H            5.68848087932623        0.09624474199783       -0.00890383436980
H            5.54384225070703       -1.61779953731218        0.22514916430336
C            2.84479381070272       -1.66177304535045        0.21672305314474
C            1.57970818895278       -1.12231733923235        0.13074524767330
C            1.70310835541027        0.32943680111057       -0.07142075046287
C            0.58208277760742        1.12133745745299       -0.16364900399933
C           -0.71235707134062        0.58258754828167       -0.07163783005591
C           -0.85778140163262       -0.89233787544687        0.00474736782965
N           -1.96872022522850       -1.59676716151318       -0.10037336328283
C           -3.23508299121171       -1.25048467397956       -0.19068789160389
N           -4.05082221920297       -2.29735612637973       -0.47902134862195
H           -3.62643662771056       -3.20940980444755       -0.48050887882591
H           -5.04677502361532       -2.22338097032874       -0.38168013914537
C           -3.82564585261252        0.01069066643488        0.01085234329623
C           -3.19731186297737        1.23774952892267        0.13670598889637
N           -3.98789906143230        2.31757232592211        0.38117451306118
H           -3.60391717404920        3.24642044054175        0.36681632485189
H           -4.98606894665995        2.21580454758957        0.35320921557186
C           -1.78965743787651        1.47862358122929        0.01433984136531
C           -1.46141054687728        2.85556522235121        0.01973471427228
N           -1.27854357374277        3.99060201192029        0.01847262052132
H           -4.90750999513130        0.02213282698664        0.06631709645118
C            0.29631139965773       -1.68319442169151        0.15526736203797
C            0.14168559081163       -3.07778569781183        0.27553250894886
N            0.04225128808970       -4.21654849911825        0.38804863292290
H            0.70339062160538        2.18964798660985       -0.27720189588380
H            3.09474172313244       -2.69547790315028        0.35997376772063
