26
 energy: -48.026640186645 gnorm: 0.000860359468 xtb: 6.6.1 (8d0f1dd)
N           -4.88011679799511       -1.01222413581593        0.02298440228988
C           -3.98064006095515       -0.29760399594285        0.01346617264562
C           -2.90415740578400        0.58987581452925        0.00317283632522
C           -2.98568303538150        2.01115085253965       -0.00442472080680
N           -1.81407074302119        2.62280855989974       -0.01144210725428
C           -0.88676902971785        1.64788092582155       -0.00844838315969
N            0.40291088666109        1.81657014170065       -0.01137481993964
C            1.21325728199138        0.73818053121725       -0.00679900318154
C            2.54900696414340        1.11344553921693       -0.00400329800288
C            3.75149623845409        0.38908367993562        0.00178482566786
N            4.89759803605753        1.11451518945734        0.00563694273589
H            5.79259685371707        0.66133643728056        0.02423553093002
H            4.86516871160858        2.11748396944772        0.02144898165364
C            3.86581400842211       -1.00686554711613       -0.00174643619393
C            2.85791235395226       -1.95214960761128       -0.00672972880635
C            1.48384722092850       -1.78680426223345       -0.00596428975363
C            0.69379127236459       -0.63222076759710       -0.00380233188099
C           -0.71430389480609       -0.80642892414489        0.00034697977978
C           -1.28893924213096       -2.09755644903720        0.00390010588353
N           -1.76670513995210       -3.14090573406716        0.00660628966356
C           -1.53750813848340        0.31226886754459        0.00032098673973
H            0.91539627632094       -2.71095665699552       -0.00661862234665
H            3.19278816520580       -2.98164571753364       -0.00968754261662
H            4.87910709821189       -1.39038781284599       -0.00040748840112
H            2.65841347905854        2.19259913948807       -0.00540285750211
H           -3.89768506977103        2.58246213666200       -0.00493483066729
