28
 energy: -56.267371726017 gnorm: 0.000710461641 xtb: 6.6.1 (8d0f1dd)
N            6.05807658309081        0.47032847036129       -0.67029425034528
C            4.92558972011812        0.31217979198248       -0.55887261702002
C            3.53530773443734        0.16616881950070       -0.40897217204022
C            2.89705655366435       -0.96814892180527       -0.91473193791973
N            1.72105225144438       -1.41596825428199       -0.56586406917112
C            0.65362000269932       -0.80936106004585       -0.13294579515473
C            0.52058108578106        0.69424344442254       -0.17882685972849
N            1.53706046491252        1.42427241902959        0.19428636109929
C            2.82201844165446        1.16782534673814        0.32684353935808
N            3.50228734059597        1.99844206808101        1.13720577429200
H            4.50703144915468        1.96852063969996        1.17542701735851
H            3.01043297790943        2.77577814702703        1.54334180568852
N           -0.63952663569145        1.27462507061042       -0.40711090828336
C           -1.72942955683984        0.54980475681540       -0.24013983566199
C           -1.70633110331969       -0.85217514955988        0.28464435335500
C           -3.01169121134282       -1.26259461532170        0.46849339186179
C           -3.85708453331800       -0.20876940945957        0.06432407584630
N           -5.18932853339931       -0.21103804762899        0.07243301087126
H           -5.69451667875588        0.59465656518933       -0.25985466231129
H           -5.70020768636939       -1.01385396863127        0.39813720552425
C           -3.06257038170701        0.90422502869396       -0.39334937105536
C           -3.61013957813515        2.09648405886397       -0.86242787990262
N           -4.14024187210110        3.04467538436567       -1.24014085570141
H           -3.33570396203719       -2.22333334323242        0.82028029955044
C           -0.48009278953211       -1.52170279084194        0.31288985802391
C           -0.39925740418145       -2.89106846005941        0.63315642705450
N           -0.35187644621253       -4.00018250183607        0.92358677156236
H            3.46536600108426       -1.64536349607468       -1.54277705525115
