24
 energy: -49.352026069579 gnorm: 0.000829704468 xtb: 6.6.1 (8d0f1dd)
N           -5.88708888529002       -1.09719860371306       -0.30694186103914
C           -4.76849691562884       -0.86406353882352       -0.21685774460701
C           -3.38603271882031       -0.59584944054400       -0.11562328400111
C           -2.83641259646166        0.46811821790251       -0.83021575785398
N           -1.70955170851490        1.06023750237778       -0.50140777444800
C           -0.61322572335779        0.63895007737456        0.00246929667335
C           -0.33766954195481       -0.84613543129371        0.17388315342650
N           -1.31411638225740       -1.52547906174826        0.73819007790322
C           -2.59670530913327       -1.37211446740854        0.77587760990420
H           -3.10477791206642       -1.97934399650375        1.51745575066653
N            0.85128812553021       -1.33772982339106       -0.00343250071703
C            1.87669226409011       -0.48797449024041       -0.04347544495049
C            1.73224672696198        0.96406137930737        0.28187626414246
C            3.04005060919148        1.52351436747533        0.29568374953897
C            3.91896898991496        0.53696077622943       -0.04226926108190
C            3.21784457678666       -0.71097851250291       -0.27429155830621
C            3.83136866016106       -1.90768267429827       -0.65297228108432
N            4.36129849744856       -2.87551837788987       -0.97080066766381
H            4.98517200178933        0.63743291054758       -0.13818301997562
H            3.26782585757993        2.54871520327910        0.51713201981891
C            0.47935766365143        1.52097904400662        0.31383866526984
C            0.25370972143213        2.90747296438039        0.46400603719429
N            0.07272403453655        4.02928526626196        0.61057866456095
H           -3.41984494758905        0.98712618851458       -1.58125249857025
