25
 energy: -48.286289707225 gnorm: 0.000492766273 xtb: 6.6.1 (8d0f1dd)
N           -5.35603371163215       -0.45729731532970        0.76071185845261
C           -4.22253534107836       -0.37373528515055        0.59404274434086
C           -2.83991337783278       -0.21585970029548        0.38885033630661
C           -1.96664399406039       -1.22143168312584        0.76452339197825
N           -0.72852637257441       -1.35892769099331        0.33345088860501
C            0.16897941047232       -0.49131657701161        0.03102661821874
C           -0.02484086305605        1.00179987184742        0.19800491245108
N           -1.18974718302850        1.50295224535429       -0.18339691494746
C           -2.38342456027559        0.98396251203819       -0.28148979643038
N           -3.27576010179618        1.68241892831229       -1.01080987861365
H           -4.25033295480705        1.43461035829712       -1.00548492685761
H           -2.99071713301794        2.57457801401215       -1.37698495261225
N            0.96896778847367        1.78723858944819        0.47580610463335
C            2.21385673863564        1.31387863116332        0.36630378578477
C            3.41895389737139        1.86866087246129        0.68458067279621
C            4.44656431290130        0.97919731862147        0.23018126391534
C            3.90642919021898       -0.14528611160916       -0.34187866601146
C            2.50003039591910       -0.02329145092190       -0.26250740422410
C            1.46605813561587       -0.91188076891718       -0.42365669743531
C            1.66442680746240       -2.24854640889661       -0.83304358339874
N            1.82549138330471       -3.32314098656304       -1.19898625668800
H            4.43359661675901       -0.98022894125978       -0.76220805245096
H            5.49843418061053        1.17604805758964        0.34092681381688
H            3.58149351923847        2.80947502089656        1.17159178400123
H           -2.34083584272597       -2.07126217677240        1.32301932297500
