25
 energy: -49.079768386080 gnorm: 0.000423813431 xtb: 6.6.1 (8d0f1dd)
N            5.50391180197100        1.03791828953683        0.00228522822660
C            4.38726644192963        0.78140215775305        0.00236727868029
C            3.00270813867159        0.48219152150723        0.00088168426212
C            2.11965442571694        1.62015172805456        0.00023758352040
N            0.84199457090642        1.67123329944007       -0.00040796751690
C           -0.10769600013121        0.71597780524607       -0.00078049957319
C           -1.39771247436450        1.23684005567462       -0.00144893867563
C           -1.58683163217369        2.63846743177395       -0.00208805175310
N           -1.80056361056640        3.76436130388769       -0.00047372856153
C           -2.52870089539776        0.39513975620048       -0.00201654230745
C           -2.31642861560483       -1.06174826789898       -0.00202851913904
N           -3.51590718633707       -1.70847490307896       -0.00267249996980
C           -4.42731425053311       -0.76452130717469       -0.00309735964137
C           -3.88910204912133        0.56407701060377       -0.00273988790305
H           -4.44888813075969        1.47790851638841       -0.00299954389249
H           -5.47250802735787       -1.01979550419483       -0.00361676315713
C           -1.06189182914373       -1.59402577499438       -0.00153886758164
C            0.08444675591363       -0.75599576964158       -0.00084346300857
C            1.32862097650960       -1.38540609561187       -0.00019879540519
C            1.35817807267139       -2.80832462170753        0.00032286123166
N            1.46181425088115       -3.94948336148304       -0.00075272429600
C            2.63873901750377       -0.83858316436887        0.00072777746685
H            3.44011695869179       -1.57008884770002        0.00139913583578
H           -0.93820315932359       -2.66707436728198       -0.00169486525290
H            2.60524549864786        2.59192298886995        0.00037724011128
