27
 energy: -46.949542501687 gnorm: 0.000565875992 xtb: 6.6.1 (8d0f1dd)
N           -1.45312388222106       -3.87159226705739        0.33378889856401
C           -1.55253135245260       -2.73013102247144        0.24967866980042
C           -1.72401819896838       -1.33178577645380        0.14413623387288
C           -3.02366017154566       -0.89590040931142        0.38491229737191
N           -3.57079171160410        0.28966106707210        0.19878217059228
C           -2.90228659667584        1.38424678760398       -0.12921685023769
N           -1.62541443256308        1.69350803829870        0.09645559052315
C           -0.57661603116855        0.91868488548810        0.18728532147025
C            0.63796511068797        1.57914370897888        0.47285705600741
C            1.83888610946339        0.95516123794149        0.25676418699884
C            1.86244165627724       -0.44779049134122       -0.21977119566558
C            3.16869777659247       -0.79905654647288       -0.40250223912309
C            3.98375023214440        0.34101211409646       -0.05143871930864
N            5.32888320999778        0.34102913225715       -0.12274858415649
H            5.82331650451998       -0.49724298690546       -0.36917451733792
H            5.85214105717419        1.14627592925000        0.17055777434705
C            3.16849685478880        1.39334495212979        0.34323058817716
H            3.49528656137771        2.36579081156734        0.65702738435075
H            3.55191318154408       -1.74328324178453       -0.74079655844396
C            0.65614439656563       -1.15936248275509       -0.32606175353527
C           -0.54628611438076       -0.54805200992360       -0.07554505384870
H            0.68508257527074       -2.21548765618562       -0.55604322618072
H            0.58398848001878        2.62143092949861        0.74884343386262
N           -3.64543437418823        2.39188999784695       -0.64219875140602
H           -3.23536930340876        3.30650657282400       -0.70554149802509
H           -4.64481313322295        2.29040508271554       -0.64161101962140
H           -3.73838361442305       -1.64737280110683        0.70871534005182
