25
 energy: -48.296549067986 gnorm: 0.000925585927 xtb: 6.6.1 (8d0f1dd)
N            5.49510571371479        0.63563772580131       -0.00045391513323
C            4.34902393992903        0.57310416435908       -0.00028735339014
C            2.94006606219505        0.47676947621680       -0.00007392722029
C            2.24246466794601        1.70538157021834        0.00089749982557
N            0.97927004651871        1.98182302329880        0.00070114801802
C           -0.10386650572743        1.20075730365823        0.00012866132868
C           -1.29741156510998        1.91660404929803       -0.00025895976879
C           -2.51274990064343        1.25757632126217       -0.00039956452835
N           -3.76786184477793        1.69339253207735       -0.00061046875056
C           -4.50127841951347        0.56347368272197       -0.00039279732976
N           -3.84554844135296       -0.59341012476362       -0.00007678095031
C           -2.55573605007774       -0.22470869448446       -0.00004592755574
C           -1.38604479185215       -0.95745365822636        0.00021842309036
C           -1.45178603436891       -2.36685132154739        0.00058499767959
N           -1.48043957632398       -3.51437555161414        0.00057909101086
C           -0.12134004705691       -0.28709353481314        0.00007297913791
C            0.99476067526734       -1.09545186291203       -0.00044538731097
C            2.38223570252432       -0.81519766673895       -0.00080190150505
N            3.21048656625378       -1.88002578154923       -0.00172637530367
H            2.84310706346957       -2.81542717145970       -0.00205064198869
H            4.20844614340220       -1.74991795106457       -0.00187358047402
H            0.77991746914985       -2.16060530188652       -0.00076246581593
H           -5.57558073484989        0.59814681964127       -0.00051915113316
H           -1.24740299120030        2.99352977738386       -0.00027891154783
H            2.87389514948446        2.59100039982291        0.00173547621550
