29
 energy: -55.213877530457 gnorm: 0.000804375740 xtb: 6.6.1 (8d0f1dd)
N           -4.22564346301108       -2.72796646707290        1.17174986631393
C           -3.62648790000913       -1.80905058688483        0.81966094609526
C           -2.95041024974037       -0.67451489200773        0.38723147569026
C           -3.57301011111077        0.52652980352575       -0.04108366744349
N           -4.89323982865189        0.73579665061686       -0.07924255800223
H           -5.26292640463978        1.61931829135880       -0.38333474999276
H           -5.52552517307930        0.00843943711103        0.21034519527165
C           -2.57407653159325        1.46841127204208       -0.42267848910620
C           -1.34552579350967        0.88250528479074       -0.24053899519291
C           -1.55700740447018       -0.48919135632143        0.27563197037871
C           -0.50114706413292       -1.33859698317940        0.48295433799885
C            0.80132112612159       -0.90524644680630        0.16673462041391
N            1.71503511883316       -1.81392520137037       -0.04873665307726
C            3.00312881417129       -1.62964429368651       -0.37005299348405
N            3.55618794318947       -2.64561711529757       -1.05873421530538
H            4.54905401731098       -2.64795535275147       -1.20530261185303
H            3.01251820608985       -3.47356901658022       -1.22193080649316
N            3.81818784492153       -0.66393865821663        0.01315790054320
C            3.37833536284043        0.51936152870630        0.44439557899032
N            4.27443290258802        1.27222553251609        1.11224312735690
H            5.22714925215998        0.95800823947210        1.15638167857357
H            4.05495827029213        2.24019617826921        1.26875596306792
N            2.22026817412278        1.11162630064145        0.19270364556175
C            1.04958495066751        0.55696586535301       -0.05125365075082
C           -0.03555111686360        1.37870601786669       -0.37854224165152
C            0.17734419765791        2.72262696152462       -0.73145742589169
N            0.32700530174512        3.81957521458397       -1.03794426631410
H           -0.65082779409233       -2.36873474031452        0.76767508043271
H           -2.76579562320989        2.46165593521470       -0.78119430472788
