28
 energy: -46.664360343392 gnorm: 0.000705736179 xtb: 6.6.1 (8d0f1dd)
N            5.68210306746412        0.63725551990500        0.04298298931614
C            4.54114004363365        0.49188982706634        0.01777776903954
C            3.14670528316238        0.31193678033027       -0.00387277705526
C            2.37593427904166        1.50773271863624       -0.01423704709532
N            1.10654350850974        1.72011119179483       -0.01658093577397
C            0.06781501325341        0.86272294453132       -0.01319329291093
C           -1.16383621723542        1.48022782380837       -0.00557143283524
C           -2.35761992250325        0.75204027043184       -0.00561691838739
C           -2.29553823920222       -0.72410780881304       -0.01727302637889
C           -3.61239573224639       -1.20207414828536       -0.02208183555735
C           -4.45904117851561       -0.09803502837276       -0.01396610050241
N           -5.81070643679640       -0.11876820332398        0.01821237436389
H           -6.29731663903467       -0.98723553995506       -0.11652569228423
H           -6.32162640073156        0.73577725105847       -0.11410672667625
C           -3.67960279378117        1.10918325980637       -0.00211505142485
H           -4.08814290982111        2.10209523093594        0.00693784149833
H           -3.91613049582119       -2.23153414928607       -0.03125213637872
C           -1.07477492764999       -1.34864340164923       -0.02309682670225
C            0.13735283945208       -0.62495786086692       -0.01838026331316
C            1.29916227530850       -1.37065187454033       -0.01585712942898
C            2.66216772913647       -1.00298664073962       -0.00852968969819
N            3.56450482541302       -2.02190399202206       -0.03633427209870
H            3.25913654580243       -2.97199195173438        0.07076851247765
H            4.54586428666395       -1.82017257656617        0.04946834669856
H            1.14731009661259       -2.44684580364335       -0.01940472250316
H           -1.02674686673156       -2.43026767430479       -0.03019136580330
H           -1.18314426205058        2.55939530801816       -0.00054289129317
H            2.96698911636711        2.42189447638005       -0.01675356909252
