23
 energy: -44.052053770046 gnorm: 0.000758146598 xtb: 6.6.1 (8d0f1dd)
N            5.83371715621468        0.13474935048007       -0.04135659973221
C            4.68725648956222        0.10241996100208       -0.00477174328792
C            3.27937517752040        0.05793536502325        0.04938505808919
C            2.65166816412723       -1.06749144355304        0.64380380767278
N            1.44360325065799       -1.46728243768040        0.41022188225727
C            0.36111166311503       -0.85173684490141       -0.00166312861815
C           -0.78693426120791       -1.50028999852810       -0.42382421585356
C           -1.98228734003173       -0.79620019926585       -0.30755606390619
C           -3.31812744668199       -1.09554954199066       -0.42390964172959
C           -4.00695546244757        0.02389506830077        0.12807243089322
N           -5.32624176307086        0.17524501895854        0.22703448353322
H           -5.67917273913084        1.01917917864707        0.64599228446530
H           -5.95978423800582       -0.52416635162477       -0.11701294704301
N           -3.18116213264017        0.98903802389159        0.59954650039904
C           -1.95498231248409        0.56818012538522        0.34180667521990
N           -0.84694401238270        1.24325773897123        0.54207968892119
C            0.27500905167239        0.66064133075202        0.15402544406159
N            1.27813585604367        1.36285101051678       -0.26637022503230
C            2.52844513017891        1.07791062049153       -0.53570836459521
H            3.02088411064725        1.79581263829577       -1.18322473809188
H           -3.77599818741608       -1.98161400659493       -0.81591908012898
H           -0.75954614239583       -2.53952125598978       -0.71684478103062
H            3.25814745325571       -1.75419461198701        1.22524581073734
