26
 energy: -48.022608071479 gnorm: 0.000673690688 xtb: 6.6.1 (8d0f1dd)
N           -5.76781395032246       -0.90104296115317       -0.00028840125222
C           -4.63085894416567       -0.74934186653170       -0.00229111536725
C           -3.22839524631816       -0.57025339331962       -0.00067586310719
C           -2.44974024872947       -1.73198282615319       -0.00056986462908
N           -1.15078501637240       -1.89375370733829        0.00109075318013
C           -0.15519888562208       -1.02285349155342        0.00161338509182
C            1.10225127929806       -1.64682121298309        0.00400614855244
C            2.26446441774384       -0.91322065502838        0.00361138198673
N            3.53500095600242       -1.33816588557835        0.00517525744845
C            4.28460226969088       -0.22500520503008        0.00359845977638
N            5.61763384348812       -0.29430544706070        0.00452582630950
H            6.05227173971352       -1.20097252568974        0.00652010275092
H            6.18251710240490        0.53586158261208        0.00359232149214
C            3.50406588141724        0.98271393242876        0.00088756965295
C            2.19973356210610        0.56189754272337        0.00079715012348
C            0.95008061367538        1.19225666659954       -0.00097592100531
C           -0.22143095313190        0.46805835889710       -0.00041724874710
C           -1.45468216298725        1.19627816054007       -0.00088008684922
C           -1.35920503271263        2.61431977352968       -0.00127244559854
N           -1.34278287392049        3.76107961202108       -0.00200526871585
C           -2.76293524312023        0.75512400165916       -0.00064369292397
H           -3.52754067762772        1.52468662710823       -0.00092125091943
H            0.91419587730157        2.27301738694857       -0.00266649471553
H            3.89257582023130        1.98142107340279       -0.00066666226286
H            1.12579496115027       -2.72464681500108        0.00565669488938
H           -2.99337628839298       -2.67387978354968       -0.00157112166074
