28
 energy: -52.265253938078 gnorm: 0.000882332493 xtb: 6.6.1 (8d0f1dd)
N           -5.71281180681369       -1.54328147855185       -0.00109303104606
C           -4.60534866590377       -1.23758593115548        0.00202484829266
C           -3.25198651947961       -0.84610321365942        0.00037924052791
C           -2.30062343742074       -1.91574493268537       -0.00009717247975
N           -1.01997048089932       -1.92501876931417       -0.00034207902002
C           -0.11946169414514       -0.91636892203945       -0.00026358684584
C            1.19427752300486       -1.34777524009954       -0.00029228801285
C            2.25780796818330       -0.44838217019777       -0.00018472620051
C            1.98735522012512        0.99078532457257        0.00012225219488
C            3.24362767232948        1.66851160408296        0.00019631823572
C            4.22522710795701        0.72348537673127        0.00012908363747
C            3.63809983361518       -0.59730806110481       -0.00008439603227
C            4.35110043271157       -1.79461841914193       -0.00030933924542
N            4.94243286365327       -2.78092167181938       -0.00126772139547
H            5.28566200012125        0.90075140919239        0.00031080732190
H            3.36864723909064        2.73451764807476        0.00038165540759
C            0.69365913162165        1.44593063638297        0.00028787453367
C            0.46136928226196        2.83856710895287        0.00147073219611
N            0.28354762578541        3.97268956891959        0.00098628947479
C           -0.42342902429726        0.52641412990794        0.00000095988636
C           -1.67034255441802        1.09430740712713        0.00036717598303
C           -2.97751957058257        0.52299856314819        0.00052502019254
N           -4.00299316104349        1.40014894763130        0.00091688393928
H           -4.95301592213431        1.06781529184630        0.00091052325200
H           -3.83566386407613        2.39078624951812        0.00102713736772
H           -1.68673800616784        2.18040979902940        0.00060643738667
H            1.37535560207649       -2.41146337516426       -0.00031522016061
H           -2.74473534195537       -2.90853475888435       -0.00015088489149
