27
 energy: -57.321706794951 gnorm: 0.000889645328 xtb: 6.6.1 (8d0f1dd)
N            5.43420672271192        2.05066589183522        0.12277557997938
C            4.37370475438222        1.61285459343920        0.14848233834404
C            3.07999001239828        1.04858966106436        0.19644457614010
C            2.03310727434384        1.92667891344751        0.52618866341147
N            0.76402518519764        1.76256368098806        0.33635846843616
C            0.01896331873325        0.69227299963172        0.19925582002295
C            0.47179900170967       -0.71003034814081        0.36798162441793
N           -0.39671794923042       -1.68144191591790        0.58890694735299
C           -1.67352727596415       -1.49708151134243        0.40432391734311
N           -2.66576678270715       -2.35059295712902        0.63627904997229
C           -3.79062590110183       -1.73366201016872        0.28475530702884
C           -3.59857510131251       -0.39542870267142       -0.13701372432825
C           -4.59190929538726        0.50490811437820       -0.53466427977860
N           -5.41963847743287        1.23132539713169       -0.85737994191077
C           -2.21267791225828       -0.20093340360004       -0.10614244992843
C           -1.34782389072816        0.88454445908714       -0.12075332924778
C           -1.81752901882783        2.20343740813614       -0.32796956777724
N           -2.20008620766920        3.26507974218787       -0.52117417473751
H           -4.73250360692830       -2.24922805412327        0.34387027212774
C            1.78960175974785       -1.10454126535091        0.07983083761000
C            1.94856679762645       -2.50239056649406       -0.10549418885394
N            2.15099319911161       -3.62077695932964       -0.25809847425396
C            2.96616478531147       -0.32667747322005       -0.12787925988676
N            4.06054153580840       -0.96216135408294       -0.57814610166606
H            4.04400889222075       -1.95587595986378       -0.74433550527301
H            4.93207179261704       -0.46548773545208       -0.67201245247973
H            2.30930243774247        2.92593981337143        0.84648815566148
