26
 energy: -53.596802252459 gnorm: 0.000435397267 xtb: 6.6.1 (8d0f1dd)
N           -5.18634666067940       -0.48508109087258        0.05062199404573
C           -4.19703879946629        0.09652875301520        0.05577164023324
C           -3.00946564655046        0.83191164154550        0.05554062332056
C           -1.69496364356548        0.36558981438007        0.10561656199004
C           -0.86391209238061        1.58251604916406        0.04548447923593
N           -1.64043656004793        2.67716010341067        0.02785556763423
C           -2.89007823595741        2.25324080620764        0.06016638144087
H           -3.70465299834797        2.95437261235381        0.08878295188499
C            0.49878628246656        1.42895578830078       -0.11927863625757
C            1.25884781608998        2.56585187105250       -0.48912845860865
N            1.79585205179053        3.49921203712690       -0.87958542697942
C            1.06792178782503        0.11980635260686       -0.06021049818677
C            2.45824378275391       -0.00002366218030        0.09693376636338
C            3.18520745598800        1.14233761067748        0.53764573284969
N            3.85376450903202        1.95530147815337        0.99081730051001
C            3.30561431541100       -1.11556103327375       -0.05350219401656
C            2.98579692411362       -2.43326786678895       -0.26621184766832
C            1.71497236079402       -3.01772641286305       -0.23036076320280
C            0.49704793985667       -2.39557258209334       -0.07042905607229
C           -0.62095785743221       -3.27443789786719        0.02241550479510
N           -1.46954286152924       -4.03901734810953        0.09783185131835
C            0.13335346587119       -1.01010236247992       -0.03092133423654
N           -1.16951600996533       -0.84049873029619        0.03900156613975
H            1.68168693522788       -4.09732193209797       -0.31232239237696
H            3.81476982665630       -3.11272343870686       -0.41208336802449
H            4.36138645874178       -0.88022062756587        0.01592817746865
