28
 energy: -55.487334556163 gnorm: 0.000970487258 xtb: 6.6.1 (8d0f1dd)
N           -5.58251067174460       -0.33362031865811       -0.59640281201421
C           -4.44994303834323       -0.26314586852744       -0.40572750621617
C           -3.06825492331935       -0.18541961114142       -0.16518737283121
C           -2.41240825282186       -1.39762829198619        0.22817712861151
N           -1.14455682754346       -1.67696908151559        0.09755263080383
C           -0.06170661178896       -0.95074426619795       -0.07529848483635
N            1.00698937319484       -1.64320176149649       -0.43461631325734
C            2.18544510807765       -1.06532641193475       -0.32824830398095
N            3.37352412931984       -1.55960660614442       -0.61614062386399
C            4.23307545039710       -0.58201866955143       -0.21539252134524
N            5.54644443368519       -0.73187269250356       -0.33486078563498
H            5.90800354491697       -1.58585109671564       -0.72096672525951
H            6.15496730303689        0.00381794126052       -0.02240687101631
N            3.68941183211531        0.54477641738211        0.29381005202981
C            2.38228287987986        0.30649452382577        0.23880305490732
C            1.26649395128179        1.08756053851145        0.46820628108670
C            1.38055804672344        2.43522372198628        0.85820607118184
N            1.44675443505459        3.53601449120801        1.18060931560577
C           -0.01236287623984        0.51134681804519        0.19709423915659
C           -1.10165764816482        1.34490232249422        0.07977323863065
C           -2.45101100584316        1.07156583759571       -0.24966477235953
N           -3.20995571680728        2.13710772234985       -0.59125755993325
H           -2.81126158009975        3.05849800576523       -0.61146214954743
H           -4.18947486302716        2.02424501106831       -0.78933779811026
H           -0.88247102760540        2.40371754761101        0.18638832425718
N           -3.17499764818673       -2.40447668002863        0.70201198276630
H           -4.17877746324905       -2.34696510315858        0.68598006184460
H           -2.72737977459836       -3.29318090154391        0.84974621732377
