22
 energy: -40.326357581964 gnorm: 0.000475082986 xtb: 6.6.1 (8d0f1dd)
N            4.16671633406477        2.19941823679357       -0.00295356772183
C            3.47222558653900        1.28454450926318       -0.00174592635537
C            2.66214137409063        0.14868826843682       -0.00116996522885
C            1.27346033864259        0.05311288081133       -0.00076077981558
C            0.99834481628265       -1.39993174098467        0.00010387754671
N            2.15931464889803       -2.10381808345447        0.00020510111841
C            3.12173193098117       -1.20815260896593       -0.00055819298680
H            4.15350888119028       -1.51453862137156       -0.00061973500483
C           -0.29750232257397       -1.81938130511517        0.00042469808107
C           -1.33669483712784       -0.85139183354952       -0.00014562638338
C           -2.63408254884333       -1.33037836839104       -0.00173633050341
C           -3.85850760448869       -0.64499073190903       -0.00321342012371
C           -4.05837769558888        0.70973314756587       -0.00173957307539
C           -3.05955815763769        1.71643851488539        0.00154512021750
N           -1.77342449267629        1.63926072447006        0.00175234014387
C           -0.94130051946169        0.59070201128031        0.00014612778002
N            0.31648470066707        0.96864448415569       -0.00046728152790
H           -3.42448502975871        2.74085322888077        0.00385032806591
H           -5.08091076742746        1.06386206035511       -0.00288301828758
H           -4.74106445277287       -1.27267087097021       -0.00534734617929
H           -2.72043921653912       -2.41250081966871       -0.00239564181230
H           -0.54393776695960       -2.87247372311780        0.00077910445277
