32
 energy: -59.153653486089 gnorm: 0.000478221695 xtb: 6.6.1 (8d0f1dd)
N           -5.59705518533045       -0.49343686946765        0.02490632169921
C           -4.45029467531600       -0.39796719134305        0.01905438676311
C           -3.04501708116310       -0.28918242924728        0.01146391904819
C           -2.34128098652532       -1.51142010062676        0.01967012647115
C           -0.95006213733403       -1.69129255216808        0.00324725969262
C            0.11838900931681       -0.81330568955123       -0.01174273586765
C            0.02744702998758        0.65698616945383       -0.00631480355831
N            1.09121151004236        1.44302446257195       -0.00511755747308
C            2.30928382897794        0.91714751948826       -0.01660941732638
C            2.54384612217559       -0.55509100170455       -0.03477854184393
C            3.90784906181099       -0.76435932647935       -0.04907909801207
C            4.52438449826569        0.50484692357770       -0.03903552665400
N            5.84686284690059        0.72578133569173       -0.04685880365860
H            6.20574892822629        1.66406971049048       -0.03977000180608
H            6.49216838978708       -0.04424010398126       -0.06375255148801
C            3.53431958348842        1.53258116304383       -0.01841097066741
H            3.72593422717179        2.58671590769124       -0.00736509649295
H            4.41506082071683       -1.71020905480097       -0.06449840741985
C            1.42356866425106       -1.38098190611229       -0.03006256949091
C            1.60644519319172       -2.77647242187319       -0.04235164126858
N            1.78224174531958       -3.91289480075939       -0.05297884063918
C           -1.17593546781420        1.40113580394096       -0.00548222087481
C           -0.93193916333315        2.79935662185956       -0.00884739246420
N           -0.83678459140272        3.94448581942679       -0.01250209093391
C           -2.53501086385734        1.03274449169722       -0.00436647585931
N           -3.44662697143906        2.03670003444396       -0.01513381142064
H           -3.13859777498934        2.99365800745383       -0.02725892926042
H           -4.43088702648951        1.83427863990057       -0.01630303960314
H           -0.65908614564027       -2.73828776710223        0.00287132123397
N           -3.07724089776763       -2.65264181971985        0.04283439027120
H           -2.62047688858358       -3.54636299087826        0.04116481901977
H           -4.08154754964412       -2.61899346671740        0.04835453738447
