25
 energy: -48.290749130253 gnorm: 0.000678499013 xtb: 6.6.1 (8d0f1dd)
N           -5.99214502066121       -0.05378173684703       -0.00598969865764
C           -4.84585290388570       -0.10080475977262       -0.00588409019327
C           -3.43611418703194       -0.17450302647212       -0.00270515597954
C           -2.72711768389012        1.02369964765724        0.00290003157922
N           -1.42846572047657        1.24069785078628        0.00345482508966
C           -0.42943751174767        0.38100124185895        0.00258171998011
C           -0.50635793773647       -1.11695400568540        0.00238394602609
N           -1.63444159664986       -1.85667201190671       -0.00266404294897
C           -2.86761712830051       -1.48382671877878       -0.00599628306857
H           -3.57732431827766       -2.30746648168057       -0.01120151764039
C            0.65281488284995       -1.86176358413597        0.00550206103477
C            1.91026557015581       -1.25180933779849        0.00752427685665
C            3.20982841775858       -1.69038831366409        0.01026943856376
C            4.00986602389789       -0.49803495030371        0.01002228274034
N            5.33968572357822       -0.43671020218011        0.01228467851225
H            5.77470866774697        0.47067170024229        0.01198264999892
H            5.90214458574521       -1.26900372999465        0.01437542968108
N            3.27271151546998        0.62956818451338        0.00711296049245
C            2.00372293436844        0.22664446864232        0.00554900534229
C            0.84735842772344        0.99435680456180        0.00278598407782
C            0.93110480411856        2.40589826022896        0.00054490503957
N            1.02246817010439        3.54811040008089        0.00334174382718
H            3.58176661424047       -2.69502991286706        0.01217147823007
H            0.56344701052992       -2.93769336680542        0.00567867702529
H           -3.30675363713014        1.94288358352057        0.00614380619087
