31
 energy: -65.017033649487 gnorm: 0.000573744768 xtb: 6.6.1 (8d0f1dd)
N           -5.26423722688518       -0.49567782239729        1.18953087262404
C           -4.35680471817941        0.08434069284559        0.79101191090233
C           -3.28290377371262        0.83318597662017        0.30908838276855
C           -3.35607968695580        2.20258472685857       -0.14193110187569
N           -2.21107885053680        2.68400639619052       -0.54756866568756
C           -1.30329221245217        1.68059066669825       -0.38315911603821
C           -1.95275451193926        0.47629375650245        0.15059286484165
C           -1.21266851644996       -0.71354649409943        0.25116781801555
C           -1.87020194408661       -1.89008527388589        0.67189411325179
N           -2.41675337959477       -2.79699872753050        1.11258576161214
C            0.15906262848909       -0.71262081092373       -0.03322961108887
C            0.80984591682852       -1.93798708448639       -0.34136938159670
C            0.02541199738566       -3.03164966841625       -0.76260250286655
N           -0.49603156587386       -3.95143325736534       -1.21316855498196
C            2.20815493753036       -2.16726836455194       -0.39769842240355
N            3.11484479467380       -1.46214086308165        0.27268788798970
C            3.07159450848078       -0.23001258990965        0.68031104657599
N            3.99775150959358        0.15186126253596        1.56903614690913
H            4.11471327873817        1.11939440178668        1.82030373778150
H            4.67532712376097       -0.52609793974879        1.87504345950374
C            2.16152470359924        0.78834160948753        0.15741227340892
C            2.73056791374247        2.08262141223630        0.19085486975666
N            3.31676713194198        3.05655815054017        0.35259632275825
C            0.84665747283831        0.57452176882902       -0.19483181206106
C            0.05059133013424        1.71517218237590       -0.59441463103174
C            0.63612846611012        2.85780334205371       -1.17982843465810
N            1.05424547182574        3.75390878680743       -1.76018374165311
N            2.68645158617536       -3.24602811023295       -1.03889806333795
H            2.06032474492274       -3.92039808629663       -1.44661107705867
H            3.66524990926061       -3.45964223943022       -0.95531559110668
H           -4.24746473746655        2.80372389478677       -0.16079998705352
