20
 energy: -40.873703677052 gnorm: 0.000953159349 xtb: 6.6.1 (8d0f1dd)
N           -5.46796080400253       -0.06297178117441       -0.18646747181288
C           -4.32269403891756       -0.03773634769747       -0.13613552122875
C           -2.91219210827220       -0.02103526882961       -0.10122324333179
C           -2.23311178802800        1.14943009810073       -0.49277305525450
N           -1.02435091275823        1.45723254729842       -0.12517163401074
C            0.03416908684170        0.76249246186789        0.14021084285182
C            1.23393151242688        1.34591955989314        0.59075699015852
C            2.38251280895599        0.61131180157801        0.45064648773717
N            3.67981197405691        0.95152316858947        0.50396547441895
C            4.29949357382283        0.00431407286038       -0.17794791927878
N            3.52716434943107       -0.94280405182999       -0.75889809061453
C            2.31149747488784       -0.67383407355236       -0.34041665119634
N            1.17002176278307       -1.28746231682476       -0.55291371906899
C            0.06818832166182       -0.73183857468475       -0.14272191267619
N           -0.96770957608792       -1.41917322785813        0.27241355095906
C           -2.22070213881029       -1.11925634714267        0.44504404306754
H           -2.78149313565791       -1.85522424159087        1.01209044649441
H            5.36760454447303       -0.00620288345171       -0.29402077835388
H            1.25047475490138        2.39176890882357        0.85869713007825
H           -2.78643864610796        1.95001742642508       -0.96936423613841
