23
 energy: -44.840715043886 gnorm: 0.000635673760 xtb: 6.6.1 (8d0f1dd)
N            5.03280168297330        1.45961073570075        0.00116563098948
C            4.14835260695071        0.72674957479630        0.00052206990107
C            3.06441083349308       -0.15196851834258        0.00264313216279
C            1.70077639179103        0.16481587622762        0.00191160736856
C            1.02093713636207       -1.16199728472531        0.00353749856159
N            1.91879679262142       -2.15204771189447        0.00566251242089
C            3.11212960270425       -1.57044540663945        0.00546101747252
H            4.00548483137161       -2.17018231265817        0.00703891245556
N           -0.28028006968727       -1.29447349871683        0.00250063590460
C           -1.04592267956601       -0.20194544801571        0.00004611674407
C           -2.41927222399390       -0.49356810943237        0.00092313032107
C           -2.74170429702635       -1.88017077921287        0.00403744849699
N           -3.08915230863909       -2.97107287572390        0.00705499403444
C           -3.53007498197278        0.36834693510320       -0.00080011799370
C           -3.52241223948004        1.74194203411774       -0.00442857673850
C           -2.39750057965380        2.59268826949195       -0.00675262225106
N           -1.12588163137963        2.33090954432812       -0.00523395047790
C           -0.47281826987741        1.17117864520972       -0.00235397810814
C            0.92265507474682        1.30014936346118       -0.00125796098884
H            1.34632629451781        2.29409813427435       -0.00334951493772
H           -2.60692576468711        3.65901553795112       -0.00980607095312
H           -4.48423565116394        2.23771588029760       -0.00545208288797
H           -4.49457476860381       -0.12527007269800        0.00070576950318
