26
 energy: -52.801278381579 gnorm: 0.000705224551 xtb: 6.6.1 (8d0f1dd)
N            5.20402391210962        1.68862440854460        0.70204627646463
C            4.34396171668027        0.95068158811936        0.51687037851759
C            3.32139227004193        0.02752432105803        0.28988420369894
C            1.95027412008083        0.26046977525938        0.17451342430852
N            1.25528503787496        1.37036700675254        0.02401399007347
C           -0.02733352635298        1.34207005604201       -0.25298328721966
N           -0.57237558561128        2.50815749498585       -0.54876078394255
C           -1.79645567988399        2.87341518144919       -0.74076228071372
C           -2.97740141102779        2.24803962273829       -0.32859929842702
C           -3.11684446749323        0.94607704821091        0.13785945742913
N           -4.31603329014201        0.56710236741814        0.62278490827654
H           -5.06980804802144        1.23005044556992        0.66775601541550
H           -4.48826888766294       -0.38100273391920        0.91363922267256
C           -2.09356839044255       -0.06980297220920        0.05555019035148
C           -2.51828597733058       -1.34176082514628        0.52311546207266
N           -2.92437039385422       -2.31554574296298        0.97483885636095
C           -0.75654555092367        0.04128865518678       -0.30532182196101
C            0.03892603515635       -1.14376107544593       -0.42845782993522
C           -0.51605222515127       -2.32837854398697       -0.96303845577919
N           -0.95017538330270       -3.26363821180171       -1.46310728742114
C            1.37196400273709       -1.07610193114228       -0.08640839099871
N            2.33226904288721       -2.01648460491240       -0.06020998809628
C            3.46451931438001       -1.38966850082836        0.18842832365539
H            4.38226399680398       -1.93962379645319        0.29623706924272
H           -3.87285574221780        2.85527090198582       -0.33163616497599
H           -1.89109627153501        3.86087591118277       -1.18166135046808
