26
 energy: -43.219527149764 gnorm: 0.000753191845 xtb: 6.6.1 (8d0f1dd)
N            5.28616405803409        0.65621661264139       -0.02889359099796
C            4.14585233265208        0.50486910341184       -0.01261215302275
C            2.75298284728761        0.31682119442352        0.00295737721696
C            1.96791062532613        1.52477790532326        0.01923203759299
N            0.70973160747216        1.73039034288732        0.02000626529154
C           -0.33701115609365        0.85871644424139        0.01014498412986
C           -1.56758545617029        1.46795124645311       -0.00110326353702
C           -2.76031058956670        0.72752509286603       -0.00592027205963
C           -2.67869006209993       -0.73664909326091        0.00781877101259
C           -4.02975235130283       -1.23123096842465        0.00406837110249
C           -4.85785884003177       -0.15338105830517       -0.01143378802850
C           -4.08857396533020        1.06170255228862       -0.01767580794216
H           -4.50500193366615        2.05154567099271       -0.02950020502739
H           -5.93339782553167       -0.18123315601995       -0.01818805794304
H           -4.30640416384812       -2.26843110103466        0.01207691623624
C           -1.47715315363493       -1.35771441885828        0.01905342575135
C           -0.24809452658945       -0.61374934086512        0.01500891113126
C            0.89781927671098       -1.36227844181882        0.01233502710570
C            2.27643354509218       -0.98903354452410        0.00159541769355
N            3.16434540942519       -2.01284933704524        0.00122047289092
H            4.15132751280614       -1.82149240961349       -0.03111193599593
H            2.85410569858649       -2.96656179210876       -0.03893370457739
H            0.75165086353552       -2.43880219660517        0.01552606219178
H           -1.41472987174084       -2.43861332125564        0.02847617471480
H           -1.59553923135964        2.54659894101813       -0.00531069147177
H            2.56393232243762        2.43532445619270        0.02953811864151
