25
 energy: -48.291750912336 gnorm: 0.000994507623 xtb: 6.6.1 (8d0f1dd)
N           -5.22275934170544       -1.30445799028767       -0.90439697031199
C           -4.36732654965578       -0.61177286758986       -0.57475343754117
C           -3.31850693357057        0.21344852445991       -0.16857304868603
C           -1.94259745186859       -0.10800225399976       -0.13694212218679
C           -1.29807394892387        1.13890439275192        0.36730552372813
N           -2.20924507772286        2.06628293568378        0.61926854908453
C           -3.39288848504970        1.54508898479014        0.26714035623156
H           -4.28500139067645        2.14075516960802        0.34674354635236
N           -0.00050135944920        1.22069149318641        0.53224727960050
C            0.77082185925379        0.17325942823174        0.31610385841915
C            2.12930246074818        0.45115741057822        0.06308778550959
C            2.42006835039169        1.82791135585939       -0.10624646171895
N            2.73446286312250        2.92220679824645       -0.25079453867201
C            3.23168013094938       -0.43190822186530       -0.09694221095366
N            4.41428932666303        0.10642353757997       -0.46411592177631
H            5.23612061604844       -0.46822637168228       -0.52080671307953
H            4.50686078251012        1.10033983071445       -0.59296595499078
C            3.20166099270746       -1.80752660489427        0.18274206799218
C            2.08753083408112       -2.59639805388700        0.41929227239709
N            0.82567688642581       -2.32595782606882        0.21353367282181
C            0.19084949761263       -1.18341969795038        0.12450725537947
C           -1.18834215590075       -1.24944952697775       -0.17332195734215
H           -1.62639558818639       -2.22690524703999       -0.31572005843501
H            2.26296788639066       -3.63499763851543        0.68111992006579
H            4.15786726570250       -2.31436927373182        0.16512996821180
