26
 energy: -52.031107367634 gnorm: 0.000847066887 xtb: 6.6.1 (8d0f1dd)
N           -4.62152053056314       -1.61444454175613        1.52238584035752
C           -3.99188520305885       -0.82685254320714        0.97146478361391
C           -3.25547802668655        0.15692285448833        0.31225326540306
C           -1.88361871257109        0.21218617653953        0.07329773481575
C           -1.67328671286346        1.51461162662015       -0.61366337902486
N           -2.86580582065035        2.10682920911720       -0.85000612874193
C           -3.78258871038752        1.32088279913589       -0.32623690391449
H           -4.82617473837769        1.57303826548116       -0.39905500681831
C           -0.40252230222259        2.00283832158391       -0.69254466479534
C            0.67190202352109        1.21163127026558       -0.20388563178947
N            1.83708207118742        1.78165763500208       -0.09804345524215
C            2.98913777128513        1.26356470117241        0.32379945505990
N            3.46031295196934        0.05543094357022        0.06610665037564
C            2.74418287458386       -1.02320490203631       -0.20766242530783
N            3.45451688199625       -2.07266968570087       -0.65791505240169
H            3.02016199211218       -2.96956420268468       -0.79452506751166
H            4.45121211392807       -1.97455730252359       -0.73828289223604
C            1.34230904605423       -1.20134877804977        0.00231480463605
C            0.86999953915455       -2.52711075832020       -0.09175317181745
N            0.56316069255494       -3.63137866339330       -0.17278207633335
C            0.35683297253146       -0.19901202275017        0.14847576496459
N           -0.87920419653192       -0.58394809753428        0.36571408218299
N            3.83283104736931        2.12142228316617        0.91980388450630
H            3.58009014737822        3.09118219593710        0.98843616144869
H            4.77438096335362        1.82681532217385        1.10777010359818
H           -0.19505191966580        3.02084710360237       -0.98258273712818
