25
 energy: -48.288328978082 gnorm: 0.000782287608 xtb: 6.6.1 (8d0f1dd)
N           -5.62156116090568       -1.18738033177367        0.25072612492885
C           -4.50725109205039       -0.90942822801208        0.20473458576520
C           -3.15232094091287       -0.53077519340809        0.16850931169097
C           -2.20778237065595       -1.56354220663487        0.31725566661420
N           -0.92984142961837       -1.55834666811686        0.13711371441672
C           -0.04377327638258       -0.57943467501386        0.09526067200318
N            1.19507376265131       -0.91127138513111       -0.16913908989516
C            2.17308335425028       -0.03367426702673       -0.21124772611185
C            1.88560632336835        1.38183091198488        0.17594114581334
C            3.12338265324054        2.02829900418263        0.36392204176592
C            4.11387309374849        1.12083465331924        0.07809569610658
C            3.55455886210111       -0.16450462130802       -0.22200041688620
C            4.28592989509986       -1.32868976073663       -0.46653819907111
N            4.90758900380758       -2.27245521168996       -0.67266727799030
H            5.17187633451023        1.31086484903180        0.10840197199508
H            3.24834461676013        3.06274855922294        0.61800249230604
N            0.65942506588280        1.72041888001469        0.42168957264347
C           -0.35079100097920        0.87707022840222        0.26426733170466
C           -1.59523132723272        1.42171587155194       -0.03781766153836
C           -2.86461112641112        0.83028660991797       -0.11601726274223
N           -3.89550997740534        1.63214892327998       -0.45330803531189
H           -4.83455108931533        1.26992977406880       -0.46776530187939
H           -3.74997206514959        2.61341164158687       -0.61200885854558
H           -1.56228403131497        2.47725351984059       -0.28514621917707
H           -2.61443975217691       -2.55359657635916        0.50591490979533
