30
 energy: -60.504240367991 gnorm: 0.000939598518 xtb: 6.6.1 (8d0f1dd)
N            5.80623043413596        1.74181773000485        0.12884964960025
C            4.72038761182700        1.36878835391931        0.15336377441208
C            3.39478371981479        0.88910025185311        0.20222429900051
C            2.41482154719093        1.81016748563717        0.61012832799730
N            1.13059339592622        1.74980452815014        0.45103704245308
C            0.31469275325894        0.74488084898599        0.22137491216265
C            0.66555286190807       -0.69517779676403        0.30737314282145
N           -0.25475752034279       -1.63188662469140        0.45750497549990
C           -1.53184043466362       -1.32064714522787        0.32942900706320
C           -2.64973834605184       -2.12079302234521        0.46417391393002
C           -3.77611174943476       -1.34380978881593        0.12868814965758
N           -5.04746889724367       -1.74376358485688        0.11786830699891
H           -5.77523259013046       -1.09652942873508       -0.13941186686251
H           -5.29239912335676       -2.68628525891281        0.36815290903987
C           -3.35991418346379       -0.00137169862443       -0.19889751256270
C           -4.25331787223446        1.01044028286440       -0.54537463005326
N           -5.05655053526636        1.78386930059171       -0.82661253486509
C           -1.97823834616235        0.04075165581183       -0.07425196697744
C           -1.02665585505435        1.05807048610193       -0.09422682123087
C           -1.38564121385654        2.40397237387176       -0.33109840436437
N           -1.67788327996669        3.49159896666389       -0.54349921259996
H           -2.65959995443805       -3.15245691006417        0.75240237707497
C            1.96463063222754       -1.16542926226927        0.03570880379697
C            2.03167708041377       -2.56780043087268       -0.16023513383167
N            2.15616027487851       -3.69664228392046       -0.32563317000591
C            3.18609693471100       -0.46461599852453       -0.15660438375083
N            4.23683564527061       -1.15967417258436       -0.63519547639629
H            4.15592610731950       -2.14753913417739       -0.81183161275519
H            5.13990476038490       -0.72057971604261       -0.70887095673529
H            2.76722893519860        2.76035561547020        0.99921756048579
