29
 energy: -62.353056249087 gnorm: 0.000903686602 xtb: 6.6.1 (8d0f1dd)
N           -6.25472229809300       -1.04552042002417       -0.48477968768345
C           -5.12695274273121       -0.87802059664893       -0.37603694869601
C           -3.73207483330228       -0.65938367020703       -0.26323450831751
C           -2.87993262542549       -1.63191873362938       -0.77730358498707
N           -1.61535154232456       -1.78332871193390       -0.45866282711327
C           -0.69563419752061       -0.96426181058833       -0.07100471777438
C            0.59323019292638       -1.55946986406259        0.21558007423400
C            0.64037738014678       -2.95614718339971        0.43758721126890
N            0.64902127658894       -4.08240433282861        0.64197554768939
C            1.70991987880684       -0.77786109320791        0.12893673897829
C            1.61152590639464        0.64512213784316       -0.18410233193262
C            2.90239178226793        1.13073793619327       -0.32270185999225
C            3.30326139931540        2.43319304197435       -0.64417507432853
N            3.66767067945552        3.48773176314264       -0.91197188359910
C            3.82031735576909        0.04649882606455       -0.08199987012130
C            3.11899577063175       -1.09960911018637        0.19470417182094
C            3.65458909896996       -2.36361110260817        0.47908830726947
N            4.10502587348836       -3.39231627100773        0.71098246921794
H            4.89000541587811        0.14266353077483       -0.11914738994222
C            0.34256475978109        1.27109820195343       -0.19888415643202
C            0.25947038312213        2.66708231015267       -0.41949364669820
N            0.20023173331115        3.78207259298063       -0.67531234891786
C           -0.80221193959512        0.50423581014059       -0.04091019046900
C           -2.04725766325881        1.06887526086204        0.40027177968312
C           -1.95772534561338        2.30234039649158        1.10489229456921
N           -1.93637590538670        3.25373779217697        1.74170908550678
C           -3.31620584940963        0.52915250772536        0.37809986195557
H           -4.09947323952353        1.12747516164349        0.82894219417564
H           -3.28889654816909       -2.43945922878453       -1.37330402676151
