26
 energy: -52.811650076808 gnorm: 0.000909258865 xtb: 6.6.1 (8d0f1dd)
N           -6.34637074193588       -0.27892003485752        0.04682321159204
C           -5.20857469447076       -0.13668745732245        0.04893651437688
C           -3.81003072633495        0.04971259270908        0.06094063774117
C           -3.00499429466657       -0.79582250113548        0.84821383415689
N           -1.74134151837354       -1.02020814270735        0.62638315589934
C           -0.78511036596494       -0.32378432136775        0.10846941375652
C           -0.95562395687522        1.18487583233273       -0.02569689034013
N           -2.06066248417116        1.58282621812088       -0.58390809568782
C           -3.23523881737074        1.04212910386720       -0.75047021914785
H           -3.83926924216804        1.50770532541547       -1.52208252449386
N            0.03262840743802        2.00668701795079        0.23690092078762
C            1.25771415941749        1.49618893402655        0.22996317556186
C            2.46166722834713        2.13235196614084        0.43306037724988
C            3.49711005098386        1.20829750549057        0.15601586159813
N            4.80494850362701        1.44405481387907        0.22006501357999
H            5.45915567405852        0.71067368311208       -0.00325590945966
H            5.15230297034670        2.34888744720692        0.48933287301770
C            2.92797977495999       -0.06174272809509       -0.20391935519851
C            3.69443683099735       -1.18751263415067       -0.50462484638722
N            4.39527936268432       -2.06529250350141       -0.74949886296768
C            1.54522649935236        0.07317086494917       -0.14936650282985
C            0.49345771235558       -0.83785672100593       -0.20220751348458
C            0.67796234313100       -2.21956247048939       -0.41567138865934
N            0.80250281689281       -3.34317810970353       -0.60555089426032
H            2.59764685102653        3.15732429403813        0.71460969844554
H           -3.46282882608593       -1.44336335570404        1.58701679055290
