32
 energy: -59.167825205664 gnorm: 0.000936911293 xtb: 6.6.1 (8d0f1dd)
N           -5.81877165775241       -0.07882676306414       -0.07099187243406
C           -4.66887836379850       -0.05392173344082       -0.03818141768803
C           -3.26099676115377       -0.02608022741299       -0.00776236148840
C           -2.65974215528442        1.26065712354051        0.01229839746893
N           -3.50213407574119        2.32784351433422        0.03522455933329
H           -4.49737274028289        2.19991167743197       -0.01510289625162
H           -3.13170824341452        3.26004306333964        0.00286769166971
C           -1.29972633842164        1.54961778972542        0.01966492202996
C           -0.13656128791603        0.77105614001799        0.01285328765944
C           -0.11341475477804       -0.69281789604077        0.01656163481146
C           -1.22828318311137       -1.51014135137470        0.01669980096138
C           -2.61551733585208       -1.27440354226050        0.00013740659129
N           -3.39444706100339       -2.38477246277286       -0.01066541870551
H           -2.97487839633138       -3.29671389071842       -0.00586010937802
H           -4.39680680356926       -2.31118597177895       -0.02155890399851
H           -0.99161837600082       -2.56969537463049        0.02393367857366
C            1.14861131615996       -1.36804653443213        0.02051010410448
C            1.20815900164269       -2.77561860597334        0.02968776345278
N            1.25213717666128       -3.92361364670189        0.03836987381635
C            2.33953390493885       -0.66273856166733        0.01140500279347
C            2.31861730133772        0.81111992553375        0.00273110278277
C            3.63762244958858        1.19270725814122       -0.00650320444453
C            4.37597969525646       -0.03052510477511       -0.00338104227536
N            5.70694265659213       -0.15036107366762       -0.01012525314164
H            6.10702633232017       -1.07229104285291       -0.00732010211121
H            6.30088917552492        0.65877086526119       -0.01867293901973
N            3.59107063489899       -1.12553192236341        0.00751356578154
H            4.04768419598736        2.18254939011751       -0.01466662494250
C            1.08386167334322        1.47765786875907        0.00631983769652
C            1.11481792733664        2.88329727138391        0.00126472694983
N            1.18131203584882        4.03183446987494       -0.00466998983971
H           -1.09770826672582        2.61655904716702        0.02880721074209
