26
 energy: -47.224239237149 gnorm: 0.000429991995 xtb: 6.6.1 (8d0f1dd)
N           -4.59209636078571       -2.09993999941786        0.92184995898949
C           -3.92722012428261       -1.21405055045165        0.61277698499296
C           -3.16113571494536       -0.11316375343867        0.23903658744796
C           -1.78586064956745       -0.00381165508690        0.07577258975755
C           -1.56585117358090        1.40243812415228       -0.31884084540124
N           -2.75992544553834        2.07115527729614       -0.39664304707998
C           -3.67390773727387        1.19582274219299       -0.07007552764566
H           -4.71471326445772        1.47086518753160       -0.04687604059975
C           -0.29834816346259        1.84345602914609       -0.49811018646077
C            0.78027181683101        0.92881480973695       -0.27169264783810
C            2.03371339654492        1.45701555896351       -0.13351296476211
C            3.27687828959070        0.83553734452624        0.19260458754922
N            4.30506815305210        1.68852875704509        0.46337391454455
H            5.17245726420779        1.32101776024029        0.81134447737778
H            4.11497677276274        2.65956781661534        0.63431165604763
C            3.52917297764075       -0.51554062419915        0.15239161634952
C            2.60221614103653       -1.54267723788372       -0.18340278640695
N            1.29917858474488       -1.50384383913739       -0.15233155309518
C            0.42982513319550       -0.50561390957556       -0.06537125867472
N           -0.80638206295731       -0.89726696464968        0.15305721837652
N            3.11448148517395       -2.75417651033139       -0.50967201134278
H            4.08976452865111       -2.96045039832053       -0.39606230747306
H            2.45992520404224       -3.50889095901637       -0.62269506110844
H            4.54355181493097       -0.83486597687652        0.35770052494142
H            2.09618202496784        2.53828969421741       -0.22360421031539
H           -0.08367073422143        2.87382583182120       -0.74643843007074
