32
 energy: -59.161972997144 gnorm: 0.000975595131 xtb: 6.6.1 (8d0f1dd)
N           -5.60962115662601       -0.51504747518210       -0.10228346488995
C           -4.46507605506679       -0.40391586636560       -0.05782891294393
C           -3.06192780117558       -0.27863665881216       -0.01064876508503
C           -2.34308981595248       -1.49957663537057        0.05156648697082
C           -0.96183943577505       -1.65367069367807        0.04741227283493
C            0.11530592089587       -0.76375206688658        0.01219214571079
C            0.01307254912012        0.70353044180501        0.02800459319626
C            1.19410814348174        1.46658161452246        0.04207160094897
C            2.43752309853115        0.88216612576279        0.01271615989578
C            2.56520398629763       -0.58421381698474       -0.02636849449029
C            3.91277808299746       -0.83647660662544       -0.05689424613503
C            4.52695055064680        0.45825818488098       -0.03523082693810
N            5.84133440799196        0.70002239119065       -0.05369974616094
H            6.50539209407893       -0.05224806398755       -0.08183972127732
H            6.15765147602477        1.65373792784910       -0.03417747733479
N            3.64082972301416        1.46893597088317        0.00619820517151
H            4.42162554927412       -1.77891783787369       -0.08958874210472
C            1.39326912621257       -1.35745081451525       -0.01908627162975
C            1.55121518980007       -2.75416003421841       -0.04336509563995
N            1.72516159736757       -3.89122611435903       -0.06619080121093
H            1.13741204124458        2.54354355438799        0.06383695180009
C           -1.19431229508009        1.43134987789758        0.02765166796222
C           -1.05357817549421        2.84212056600409        0.07470077519465
N           -1.03745940379968        3.99081420101083        0.12064649756279
C           -2.56258465579747        1.03629292918742       -0.02620795391538
N           -3.48562126780619        2.02811711400023       -0.09506987644210
H           -3.20703640714621        2.99373589496812       -0.09125345934494
H           -4.46572074095428        1.80489671632415       -0.10944897722832
H           -0.65558085549026       -2.69502436406013        0.07126589025432
N           -3.07597962647356       -2.64299194907539        0.12724788641261
H           -2.61406747642928       -3.53355024902297        0.08748613373922
H           -4.07783450811223       -2.61741152525763        0.05165251731613
