30
 energy: -54.933670829198 gnorm: 0.000883571577 xtb: 6.6.1 (8d0f1dd)
N           -4.29928668672197       -2.85568024803930       -0.65636997819072
C           -3.71159488068704       -1.88714225825694       -0.44500663480294
C           -3.03207924624913       -0.70489800559888       -0.18221726905651
C           -3.62658457250499        0.53611811420324        0.11915190191758
N           -4.94534790814747        0.77366425265359        0.19294517965374
H           -5.28606112447755        1.69658839057388        0.39391658977187
H           -5.60041069088615        0.03233660415945        0.01368379964773
C           -2.60450618582981        1.51189101264582        0.33947728158282
C           -1.38910455243796        0.89803415897317        0.18021875539685
C           -1.62481123520891       -0.51514681842853       -0.15371202351979
C           -0.58082225231790       -1.37178645964994       -0.33749509950271
C            0.75988153458711       -0.92618905437938       -0.18637790437360
C            1.74569330378818       -1.87370414693272       -0.06895997411014
C            3.13633862825124       -1.69163743055220        0.22215423153037
N            3.86721566010997       -0.61586739056842        0.07556682217750
C            3.39880810904775        0.59204911665356       -0.28578997273977
N            4.34741941283546        1.43731059892892       -0.74804638747747
H            4.10008334775909        2.40709962045139       -0.84105647380620
H            5.31181641358284        1.17397461226678       -0.65273033045387
N            2.20166431310041        1.10870537826333       -0.16807320577555
C            1.01646284954110        0.52573846948102       -0.02298098761085
C           -0.06291866338014        1.37754455743457        0.22175847364178
C            0.17330043419569        2.74610102969093        0.44769972820927
N            0.32792854706531        3.86679792255118        0.64613741017875
N            3.80735313417834       -2.78495309631740        0.64811994625786
H            4.78490080837191       -2.69057919509456        0.85722859419295
H            3.34893246763747       -3.66615649065391        0.78548744777042
H            1.42218741611399       -2.90875141438604       -0.10313585624235
H           -0.75948409278066       -2.41775280833831       -0.54589794954484
H           -2.77980744513816        2.54282905906369        0.58215707477823
