29
 energy: -51.202901938395 gnorm: 0.000983203921 xtb: 6.6.1 (8d0f1dd)
N           -4.46949535887999       -2.50061408165635        0.05189815399737
C           -3.74412967702614       -1.60529725810168        0.04097429931347
C           -2.89858952660790       -0.50343360879875        0.02976646448489
C           -3.32027517624082        0.85290482469031        0.02971238099261
N           -4.59935953457007        1.25859647645235        0.03921839847525
H           -4.82511503338061        2.23714836632134        0.03679108401289
H           -5.34276412088713        0.58158896290310        0.04633977373127
C           -2.18204287598222        1.69946485519578        0.01852112506702
C           -1.05960019427708        0.90131795955438        0.01162263782861
C           -1.48858792089778       -0.50336035222946        0.01757737824794
C           -0.56243473977616       -1.51455977335422        0.01027709635318
C            0.82180918510762       -1.25143372552413       -0.00195465270518
C            1.67404741130849       -2.34720060127244       -0.01140036975215
C            3.07179465243712       -2.41743694770321       -0.02117410194288
C            3.97950443871352       -1.39319740999451       -0.02181199155236
C            3.68791924418264       -0.00014237219925       -0.01257354733463
N            2.52595539661631        0.60655440657562       -0.00313568487832
C            1.27693164567885        0.15974576440366       -0.00321364849887
C            0.31580375749613        1.18262398552566        0.00287996459705
C            0.75575516282762        2.52101281373732        0.00348283595100
N            1.08862386559486        3.61997208670391        0.00707686523384
N            4.73996302871567        0.85744639811120       -0.04490263775139
H            5.68205712249631        0.54042513675830        0.08992383651119
H            4.53092183691352        1.83808325656550        0.03249059848309
H            5.03007828064352       -1.65354203758089       -0.03121999096253
H            3.48176769554132       -3.41990138286659       -0.02860845764101
H            1.17360451164205       -3.30930859854431       -0.01116904690037
H           -0.89510606856395       -2.54388838280639        0.01372705089268
H           -2.20766522242563        2.77249843693365        0.01620510834614
