28
 energy: -57.043005684689 gnorm: 0.000749641686 xtb: 6.6.1 (8d0f1dd)
N            5.30815182959532        2.29697187736168       -0.04694833700544
C            4.24771823329775        1.86795011417731        0.05208696713489
C            2.95520882501246        1.31703011727229        0.18003627022962
C            1.96735475669129        2.16754158902058        0.75898562238009
N            0.69567480832532        2.07848582381037        0.68210982915880
C           -0.11394038758030        1.08154470297809        0.32006836882312
N           -1.33939898997280        1.41410531711310        0.02509156275425
C           -2.27652943547537        0.48052319975811       -0.12634236213553
C           -2.02790490952992       -0.93402313628405        0.19714263403203
C           -3.28569991427481       -1.61602954644182        0.15302310345110
C           -4.23374616148077       -0.70750887407064       -0.19417856283016
C           -3.63610150481844        0.60920220965041       -0.34554517922920
C           -4.34604930793347        1.77370395373146       -0.63775217082675
N           -4.95515149104291        2.71443611775709       -0.89202993595133
H           -5.28326447166833       -0.89418114654045       -0.33121666115081
H           -3.41861630821055       -2.66717687874933        0.32397980573444
C           -0.75258669933359       -1.31221788631365        0.52056101975151
C           -0.49218764317578       -2.59147079114315        1.06243725299807
N           -0.33538199131098       -3.60518901007611        1.57405296866591
C            0.30643233487208       -0.34409189029880        0.34611438250886
C            1.56059935073484       -0.76600429248829       -0.04800102903608
C            1.69687349552788       -2.13179837915031       -0.41384348938359
N            1.86976115963468       -3.20339144827682       -0.78596045199478
C            2.76589191206819        0.00984182837448       -0.27627743214574
N            3.78491578190850       -0.61528412621774       -0.89166717649135
H            3.71921128602893       -1.58349889436614       -1.16091780988782
H            4.65982918757976       -0.13218667309244       -1.01957004080401
H            2.33499514782423        3.06873853050971        1.24027899055237
