29
 energy: -56.777579963556 gnorm: 0.000714636907 xtb: 6.6.1 (8d0f1dd)
N            5.78474008450751        0.50777193655756       -0.20807088903604
C            4.64575778197294        0.42810616519987       -0.08210412194137
C            3.24975481080222        0.31897073344294        0.07873074535770
C            2.57735933619131        1.52230158850708        0.47483132504782
N            1.33834201732266        1.82141075673250        0.44834001401627
C            0.24437477660687        1.07083589810826        0.18081609759101
C           -0.92051963871957        1.79900700735072       -0.03382563163590
C           -0.85897082937913        3.20672641368030       -0.12557393702021
N           -0.85853956302616        4.34900835940126       -0.22167393247173
C           -2.17590142975021        1.15631993256302       -0.13523239718777
C           -2.23050210928678       -0.28044322109124        0.08947658781820
C           -3.63858156815956       -0.65346647206137        0.02395784043289
C           -4.11843179746360       -1.95327273849323        0.18805441913526
N           -4.49428885205298       -3.02977701807360        0.33082809778881
C           -4.35028528117481        0.49264412264969       -0.22806492182516
C           -3.46047428826415        1.60761620721364       -0.32507836772515
H           -3.76083790100073        2.62225999642571       -0.50725880720953
H           -5.41812905493289        0.55336964789277       -0.33559873635718
C           -1.11378801060838       -1.01328647737098        0.29168458677603
C            0.18420803662563       -0.39176350979397        0.22284490006280
C            1.27537591565816       -1.23934775615913        0.11567436589417
C            1.02135728088100       -2.63505228135614        0.15250236900587
N            0.89878986963217       -3.77604957989719        0.18570980211775
C            2.67611655471475       -0.93411632169518       -0.11858634272519
N            3.46509663739754       -1.95715425976742       -0.50087434216482
H            4.45204635304407       -1.80062681385738       -0.62773264384399
H            3.10714153524414       -2.89414337547765       -0.58312407444486
H           -1.17675791486093       -2.08059177304552        0.45233566887959
H            3.22790602727866        2.33434907771360        0.78695292776478
