30
 energy: -61.295954054351 gnorm: 0.000893171215 xtb: 6.6.1 (8d0f1dd)
N            6.02508051906550        1.86721784731873        0.04737426858359
C            4.94371396424676        1.48892832048415        0.07599169942076
C            3.61003365610856        1.01876258446580        0.12730929457298
C            2.64369219659775        1.87527680212557        0.68453770829527
N            1.35906422015371        1.80439243406303        0.50590218225958
C            0.54196816168382        0.84988136274719        0.15190244012484
C           -0.79963631126242        1.23657980621060       -0.11156563431664
C           -1.07935887497396        2.61001866495687       -0.29211140496890
N           -1.29404109437223        3.72302178810633       -0.45932908420069
C           -1.81128657190663        0.28967301393727       -0.07540910667158
C           -1.49172619545779       -1.11284720709309        0.25199397876644
C           -2.66741225407730       -1.81192329162344        0.35698212492171
C           -3.73944431114818       -0.90858560271229        0.08882444153478
N           -5.03518478908435       -1.21523282878881        0.08778539897804
H           -5.72087286698411       -0.50513020752692       -0.11460361174136
H           -5.34280379199173       -2.15252932586140        0.28467888183844
C           -3.20474794390743        0.38483274433745       -0.17768565599210
C           -3.98987958506874        1.50289009150425       -0.46548516405732
N           -4.70385953694616        2.37227882998041       -0.69935563568394
H           -2.77737255492432       -2.85412542411160        0.58739744889495
C           -0.14227027780490       -1.52296640036483        0.32094738544860
C            0.10769326203641       -2.88245673823576        0.61109653116984
N            0.23310269240123       -3.97554723334372        0.93484561944925
C            0.88105706711523       -0.59664077091223        0.13519126805383
C            2.17851818864058       -0.99821853711697       -0.27577062907622
C            2.30307887406298       -2.30797885421748       -0.81653360628402
N            2.46310658637322       -3.31884914467525       -1.33123468934537
C            3.35655956605164       -0.26093563737538       -0.37154399615477
H            4.20066186657905       -0.78066866471796       -0.81107414550301
H            2.97709945580158        2.76208657773419        1.21217288817785
