22
 energy: -40.315079399511 gnorm: 0.000710917700 xtb: 6.6.1 (8d0f1dd)
N           -5.49083323550106       -0.02461742289916        0.00473296472314
C           -4.34403809403963       -0.03349974250276        0.00405879523391
C           -2.93105559168137       -0.02841130257159        0.00216720197513
C           -2.30180734190563        1.26665322817555       -0.00209228071646
N           -1.05832317027590        1.57704083999017       -0.00211070969793
C            0.03726458290996        0.78339223241382       -0.00041755942807
C            1.23038780635051        1.46535638305380       -0.00025848129590
C            2.45518197083981        0.78481514348293       -0.00171246444697
C            3.78034263579328        1.14055316566907       -0.00222194345063
C            4.50381748819605       -0.09514254465576       -0.00496625153750
N            3.73989818794486       -1.16158625863731       -0.00621991722695
C            2.45736199712866       -0.69274509369513       -0.00445708951390
C            1.29261244599024       -1.39581538152390       -0.00474215030845
C            0.04083299485814       -0.72003680020440       -0.00132326195526
N           -0.98494025906715       -1.53075949818293        0.00155633819892
C           -2.28493542557382       -1.24953020103037        0.00516298494467
H           -2.90397279928598       -2.14268520090603        0.00973330400549
H            1.27954781411607       -2.47462436240573       -0.00626039999869
H            5.57560549159516       -0.19622299325345       -0.00603237773122
H            4.21085495480819        2.12219043116142       -0.00095279135354
H            1.20020059410421        2.54469967450206        0.00055093725481
H           -2.97858506380457        2.11686320971969       -0.00472325227445
