24
 energy: -49.353780288187 gnorm: 0.000746709193 xtb: 6.6.1 (8d0f1dd)
N           -5.53308227812592       -1.79261141516294        0.51260276354433
C           -4.48065770165355       -1.38795000983677        0.30910509534123
C           -3.18110290029234       -0.89749005658789        0.03909038842290
C           -2.21854254809438       -1.85818927249268       -0.43016693806468
N           -0.94815415932528       -1.76237508366835       -0.40053343983084
C           -0.09821884172269       -0.75589225079688       -0.18227997219582
N            1.13442359236591       -1.13309543267829        0.04079327689263
C            2.10780783780062       -0.24028335572245        0.11230507361428
C            1.87579064454600        1.19796687916450       -0.13829290187152
N            3.05278866808185        1.86611777203621       -0.14050859076898
C            3.99109517482746        0.97258053572278        0.05685411979893
C            3.49150487124769       -0.36934205742727        0.17685820572209
C            4.25832227361277       -1.52153678004201        0.35767672611580
N            4.91325300367913       -2.45303288002300        0.50428072747195
H            5.02484925042112        1.26229478995420        0.12263128549598
C            0.60475465488310        1.61748116316161       -0.41148284369435
C           -0.45460517338431        0.68512569990232       -0.29343496642340
C           -1.74425772584374        1.15630580732190       -0.02119796640917
C           -1.89353617883062        2.55987779569361        0.15158156807771
N           -2.05795996681831        3.68743714340103        0.27127268420901
C           -2.93853534252966        0.44127110223152        0.22939857302719
H           -3.77238053101485        1.04592567811185        0.57075437757570
H            0.40382132383578        2.64621428145706       -0.67511858687262
H           -2.60504060706627       -2.81277315911999       -0.77483000167838
