27
 energy: -58.106827059708 gnorm: 0.000693344025 xtb: 6.6.1 (8d0f1dd)
N           -5.55293878483241       -2.31812849670769        0.35816412079412
C           -4.53431043325420       -1.82073024750472        0.19678209523588
C           -3.27456418366976       -1.20968091603885       -0.02546207994113
C           -2.28512445630883       -2.00093383651901       -0.69250140333786
N           -1.01788032402486       -1.83224357443600       -0.61170493375907
C           -0.23893405585811       -0.83384798981221       -0.23871783120562
C            1.10933949301377       -1.14359364994764        0.00448053164006
C            1.50059657550845       -2.50138387628456        0.07052996499765
N            1.81371671003295       -3.60073659720064        0.13903014617659
C            2.05094929918435       -0.11610730242862        0.09340258130287
C            1.64451768097135        1.27049740847840       -0.21237999341809
N            2.71537111987712        2.08061435897427       -0.24613116339309
C            3.76364862360395        1.32459358409647        0.02807097969970
C            3.43572562943024       -0.05070069831986        0.23211005799112
C            4.33636502905791       -1.07837907494798        0.52738650021668
N            5.09329821496542       -1.90391089277511        0.77617338742662
H            4.74861973304749        1.75225306978932        0.08144387839273
C            0.31084699114604        1.59807820057359       -0.38737207690938
C           -0.03558612085943        2.91292485107673       -0.77737858495356
N           -0.28539477454025        3.95568375560153       -1.18000316736909
C           -0.67457369328530        0.58911857410542       -0.20313093337886
C           -1.96707811646284        0.92067280493015        0.19464616456228
C           -2.22837523952202        2.25867439608370        0.61125556956458
N           -2.52196266573146        3.28014973176010        1.03656221907206
C           -3.08926102013428        0.08000190562952        0.41313454857591
H           -3.92826844081823        0.55488494537466        0.91004021925148
H           -2.60688700924447       -2.89597776786042       -1.21271311652563
