27
 energy: -57.335487358025 gnorm: 0.000142909666 xtb: 6.6.1 (8d0f1dd)
N           -6.34755976125961       -0.71510138462418       -0.17129156581277
C           -5.21678872747951       -0.53568833554475       -0.11720984142922
C           -3.82315642618111       -0.32033284679864       -0.04895312127168
C           -3.03464856866030       -1.16052438382010        0.77465796873248
N           -1.76039441483524       -1.35595068592452        0.65383676137263
C           -0.78176261799174       -0.66159322899649        0.13097401503266
C           -0.98394333322241        0.82525938334136       -0.01173026546478
N           -2.08072301781370        1.25756208352427       -0.53717760319092
C           -3.24368433125422        0.71232623772007       -0.79118974569560
H           -3.82834843808275        1.22996471338284       -1.54301088682294
C            0.10376370432100        1.68844219384543        0.27446645056694
C           -0.11123339578403        3.06786527349595        0.47078457238484
N           -0.30966725278698        4.18303359608998        0.64444758878138
C            1.37658113905843        1.14090828920052        0.21416314075673
N            2.54420300528683        1.78092135608598        0.31095812922582
C            3.49414316637205        0.87054688199391        0.07564506187597
N            4.78364185940177        1.17091196381900        0.08817740216731
H            5.47786185670684        0.46338994724532       -0.08995940024489
H            5.06085715624144        2.11946572788703        0.28211663993548
C            2.94541818381825       -0.45345446624025       -0.18707001484458
C            3.72874297703471       -1.57342101187874       -0.45501326762874
N            4.44675270670182       -2.44327147875696       -0.67511778999682
C            1.57550641698085       -0.29811686961715       -0.09413726921392
C            0.48974983439334       -1.18993354882675       -0.10081505323101
C            0.68009524763037       -2.58050282006357       -0.23472206241387
N            0.82841677630952       -3.71055403303985       -0.35706271456053
H           -3.52866516170705       -1.80820514700058        1.49042584618985
