30
 energy: -60.512890744091 gnorm: 0.000438604509 xtb: 6.6.1 (8d0f1dd)
N           -5.80252012829117       -1.77663058191981        0.11795749770996
C           -4.72840869465811       -1.38201740639308        0.02075766928461
C           -3.41658069206612       -0.87952870295176       -0.10534227903234
C           -2.43316388539780       -1.80859354632002       -0.51911354981247
N           -1.15076407990587       -1.72831930720236       -0.45245192976392
C           -0.32872574822328       -0.70910281651259       -0.20579367316967
C            1.00371090975170       -1.06804093480267        0.02177466304670
C            1.34018591857168       -2.43124878480118        0.17408354354462
N            1.63620603910066       -3.52899877916879        0.31982804850835
C            2.00941672123305       -0.08967373260187        0.03647949728942
C            1.65298015453457        1.30798951687132       -0.25275877293995
N            2.74703447152908        2.09408511171658       -0.28617207991874
C            3.77982047569987        1.29916615109109       -0.03521895818190
N            5.03467486220523        1.73456577896308        0.01397608477088
H            5.78989199665867        1.09532179235264        0.19773291407240
H            5.22110467795730        2.70984171148261       -0.14738886272614
C            3.38356922829261       -0.09443123631050        0.17679512298162
C            4.28791772852832       -1.11443739440535        0.44982426169090
N            5.10805197025894       -1.88930766981635        0.67327546169361
C            0.34123950163532        1.67590409666940       -0.40696131116274
C           -0.68997008145811        0.72374699096630       -0.27188642435370
C           -1.99572821862185        1.19484899768210       -0.08777162980244
C           -2.15219065482135        2.60354125967615       -0.03941587011245
N           -2.35629433174956        3.73299641622841       -0.00214609030826
C           -3.22205597540497        0.48876002784197        0.15205085696912
N           -4.27908028683608        1.20706976742648        0.58214096592472
H           -5.17375567030573        0.75872390321923        0.69432839944032
H           -4.21616602849599        2.20455116459321        0.70024993429876
H            0.10262188312293        2.71547553651164       -0.57028128224018
H           -2.79889311344112       -2.77200548208833       -0.86238118489856
