27
 energy: -51.744942929575 gnorm: 0.000919797354 xtb: 6.6.1 (8d0f1dd)
N           -5.74981871619600       -0.58099642010645       -0.15839904065916
C           -4.61370809577913       -0.40889199799706       -0.16016284416140
C           -3.22586659749014       -0.16705002321065       -0.17032633712695
C           -2.40302093040152       -1.24830091012320       -0.50111615399201
N           -1.12267819954419       -1.39058009220663       -0.32048309948207
C           -0.15784398627482       -0.52478340562900       -0.11581225440120
C           -0.27015535600016        0.95190508360890       -0.23152121660503
N            0.78885136104095        1.73334930649087       -0.35954111704403
C            1.99691046277495        1.20574360777848       -0.21157788568117
C            3.25896684014176        1.74065501198196       -0.32007205454147
C            4.14066289912681        0.68650417885388        0.05099332831303
N            5.47157343863419        0.74715299576458        0.11746259182372
H            5.96731787751221        1.58547359860420       -0.12619989431739
H            5.97422165844199       -0.07858855488169        0.39403054043088
N            3.50425608211656       -0.47385581212628        0.34420679287190
C            2.21240105228256       -0.21488350363451        0.18987130369658
C            1.11291931459506       -1.06162947859164        0.21315655879020
C            1.24951192126451       -2.44463769330027        0.46011890490871
N            1.36790865680873       -3.56311980012364        0.68095492953822
H            3.54059354818002        2.73575168088219       -0.59528477353162
C           -1.48246336979770        1.61945509655037       -0.02432763287708
C           -2.78932269732804        1.15483373769419        0.12901235259109
N           -3.72868211510363        2.04988317748452        0.51720432698845
H           -4.69834853063533        1.78516046599102        0.55177856361595
H           -3.48383181296540        3.01588432469410        0.63984128332745
H           -1.34998024802331        2.68749126191613        0.10962889023777
H           -2.89522264008291       -2.15086141025979       -0.85148693191166
