28
 energy: -51.466082453337 gnorm: 0.000572683660 xtb: 6.6.1 (8d0f1dd)
N            5.94301681947696        1.15971791193981        0.14844419657922
C            4.83642794845124        0.86353628500099        0.05489955043724
C            3.48785234034364        0.47479495476029       -0.06377253083781
C            2.57841307957491        1.48000576490157       -0.45678372212016
N            1.28851092470215        1.50503741526712       -0.41487762763531
C            0.38693151991640        0.55512823889183       -0.19713876397929
N           -0.82960705101919        1.01468110386317        0.00067561523558
C           -1.84981986118173        0.17033807844316        0.00986199432090
C           -1.70569909597924       -1.28051322130969       -0.26886618623826
C           -2.98362243033675       -1.84606456174640       -0.28002165416574
C           -3.90086494070739       -0.83672425519970       -0.00272057537883
N           -5.23376780888632       -0.94567960699666        0.09344551278573
H           -5.78778727654550       -0.12934380112935        0.29002470991170
H           -5.69023396614560       -1.82720240115565       -0.05935476287411
C           -3.20039528165001        0.42212253907538        0.18603996950586
C           -3.85513235511930        1.61391919948867        0.47925315901594
N           -4.47723228684376        2.55024733106893        0.72646076154489
H           -3.22148755855008       -2.87665167647792       -0.46393795210566
C           -0.43168606992291       -1.78021791390327       -0.38256086076277
C            0.67064593921797       -0.91171499346699       -0.25269983043987
C            1.91990668270052       -1.47017295279474       -0.04799753845582
C            3.18158193795600       -0.88330077606885        0.16589712480751
N            4.18707170724542       -1.70856309144686        0.54579453630873
H            4.02749135104355       -2.69319204512331        0.65788578643328
H            5.12018868108907       -1.35115184706957        0.65920770277095
H            1.92468570266223       -2.55515126164024        0.02233949726465
H           -0.25780804549779       -2.84163485302860       -0.50888377346487
H            3.02427090820433        2.41938768655577       -0.77490107196329
