29
 energy: -55.979878618313 gnorm: 0.000469077587 xtb: 6.6.1 (8d0f1dd)
N            5.36658139545508        1.36741821110627        0.14257413601036
C            4.54044168225288        0.56958937387801        0.08890500055512
C            3.53348649938527       -0.39109082191869        0.02336253789560
C            2.14948083780442       -0.19065478638246        0.02336950542653
C            1.58293999314679       -1.56079753875938       -0.06290241699501
N            0.29902585275785       -1.78326485426851       -0.09421822674986
C           -0.55747427424584       -0.74812126748178       -0.04447308569045
C           -1.87323100424618       -1.21073031659508       -0.00935897512520
C           -1.95819041650310       -2.63094304107475       -0.02044705980581
N           -2.15763046766567       -3.76105455742386       -0.02727445936557
C           -3.12378259584656       -0.52794266148766        0.03682962345104
C           -3.29431462309938        0.84761096793288       -0.00229497049001
C           -2.36596349096946        1.89358267716315       -0.04447334442383
N           -2.89022922983963        3.14395919918678       -0.10520438666761
H           -3.88415119470412        3.27884302920398       -0.08025969438560
H           -2.29468306365552        3.95383200526592       -0.10333832698531
C           -0.95219467690429        1.78303909556679       -0.01427938942804
C           -0.29788013479071        3.03977408059895        0.01805000214808
N            0.15715313077901        4.09465376165950        0.04395862696809
C           -0.10393637927611        0.65084171496045       -0.01091565832167
C            1.28022417952426        0.87662863530532        0.02894819268191
H            1.66292257362965        1.88782807724458        0.05399095214257
H           -4.32911149962227        1.17310820711960        0.00494591286703
N           -4.23619594252601       -1.29568906017290        0.10909297868511
H           -4.16276656451696       -2.29879598348675        0.11140846793279
H           -5.14724568322724       -0.87484502783875        0.11582754590251
N            2.55974602995530       -2.47951119071216       -0.10583199172661
C            3.69703305770201       -1.80148953138277       -0.04814200379997
H            4.63877240344657       -2.32253625670669       -0.05832501120607
