27
 energy: -51.743434054502 gnorm: 0.000933688419 xtb: 6.6.1 (8d0f1dd)
N           -4.70872494556003       -2.34815762856605       -1.02957058664536
C           -4.05409002749020       -1.46803158253771       -0.68423381910582
C           -3.25079307286510       -0.40893431042027       -0.26769392260438
C           -1.84976630648678       -0.38059874723842       -0.17741159971617
C           -1.55275165569984        0.98317046814170        0.32789852697931
N           -2.68375716520775        1.68186271080150        0.50976854015998
C           -3.67775218841377        0.87133078233343        0.16066925488653
H           -4.69733647788898        1.21065549674690        0.21775907421177
C           -0.24322765516623        1.39235648518271        0.49957598901738
C            0.09426066782376        2.70255864182623        0.89353037307733
N            0.40297831098567        3.75838129038056        1.21901387129574
C            0.80440591894970        0.49202945932285        0.14151520060929
N            1.97022144900488        1.00835200959170       -0.09226284304969
C            3.13769239301059        0.44240819336369       -0.41466323954386
N            4.00252164016457        1.29582146462694       -1.00754820411061
H            4.96977469066907        1.05347276839574       -1.12221131250461
H            3.73131630049771        2.26244688850241       -1.06791296085270
C            3.53827698639002       -0.84959437016198       -0.07725238668669
C            2.65667559928166       -1.87321737677145        0.31733595638911
N            3.16459136135924       -3.00511666497031        0.85876517418719
H            4.15543076589661       -3.15898631467814        0.90020877891586
H            2.54130456579011       -3.78158821431293        0.99553082748256
N            1.35050920047010       -1.91443739580834        0.10140209190277
C            0.47350112260203       -0.95348538675360       -0.07947609268836
C           -0.85000417252260       -1.31172111731862       -0.35544222793472
H           -1.07328745287782       -2.33597802843638       -0.61246631826116
H            4.59365007568347       -1.08413798134307       -0.12644434081105
