23
 energy: -44.838942081995 gnorm: 0.000855880693 xtb: 6.6.1 (8d0f1dd)
N            5.92882291364508        0.52493551133872       -0.19386568192116
C            4.79149622407508        0.39405426605964       -0.13014978455712
C            3.39338515997308        0.21256746157627       -0.06576911626334
C            2.55151099227711        1.12432903079842       -0.70052748598353
N            1.29001156715552        1.30561561538733       -0.37607131414352
C            0.36763646828622        0.51459414559007        0.02651916541375
C           -0.94586335183465        0.98413535050062        0.33623830436858
C           -1.94505932614490        0.07798269580457        0.20216444170374
C           -1.64306524693355       -1.31823009536130       -0.22861685129238
C           -2.83336653469291       -1.91977565845022       -0.54539626302502
C           -3.88716482530595       -0.99930330188603       -0.27989344172907
C           -3.38024955822942        0.20061963135444        0.17760692209823
C           -4.08646700138436        1.34950877952899        0.53935966874102
N           -4.64718601166197        2.30739386578258        0.83605214774359
H           -4.93212806469867       -1.21201430784199       -0.42152150350605
H           -2.96220643866948       -2.91829902863778       -0.91440154215165
N           -0.39971781960793       -1.81157126618937       -0.20087000647821
C            0.57147720032589       -0.99374088524675        0.06103910175500
N            1.70239429125887       -1.39558175459737        0.61328004091254
C            2.87331811112090       -0.85892709088126        0.71187108670340
H            3.54051404321046       -1.35272916058981        1.41099972158619
H           -1.11490137527690        2.03837877664061        0.50433724228098
H            2.96067700281364        1.87226988652076       -1.36833061705547
