26
 energy: -48.027203423835 gnorm: 0.000975341031 xtb: 6.6.1 (8d0f1dd)
N            3.93706885588785        2.69858665174513       -0.54469888597392
C            3.27881630909427        1.76993592474759       -0.37370015040847
C            2.52780134460867        0.61638572988648       -0.16521214037188
C            3.07576459584252       -0.68460195684898        0.01354456544051
N            4.38118823008077       -0.97460622275661       -0.00318413352398
H            5.05714462334950       -0.24237532599845       -0.14333892188639
H            4.69846375638323       -1.91877304527892        0.13002335486479
C            2.01944610149834       -1.61471501339676        0.20834060492557
C            0.83056316094847       -0.92441359416492        0.15132837205969
C            1.12966412306523        0.50146040570891       -0.08237579362970
C            0.12057035048602        1.43547157497901       -0.10440879618889
C           -1.20998713984708        1.04395425728198        0.10493636148813
N           -2.06442992112278        1.99436614259115        0.41514566159448
C           -3.36634283366734        1.96113778833557        0.52163073561995
N           -4.22100334187786        1.17019893605531       -0.09209842934115
C           -3.95065370550614       -0.03880434782420       -0.53001831392760
C           -2.83042099273341       -0.83156496940701       -0.27743524131861
C           -1.54992944497056       -0.40788326164548        0.09344045714954
C           -0.51085635678928       -1.34083261600668        0.21391258739152
C           -0.79281028872580       -2.71497790172476        0.33763717211461
N           -1.00722072926764       -3.83786762170963        0.44556637824384
H           -2.92918033271266       -1.88651776730723       -0.51054397199089
H           -4.76422229563153       -0.49301827134641       -1.08621413385422
H           -3.80749076074267        2.79540445602854        1.05766105578720
H            0.33574800291552        2.49010925060018       -0.18329825817307
H            2.14359026272864       -2.66883314633949        0.36797609400903
