25
 energy: -53.089459217762 gnorm: 0.000761807304 xtb: 6.6.1 (8d0f1dd)
N           -6.05584238554494       -0.00027859971627       -0.00134848890825
C           -4.90945449543672       -0.00048617954801       -0.00281193380447
C           -3.49593399779183       -0.00032342641390       -0.00122773031868
C           -2.85340858333789        1.25368054585077       -0.01033821544969
N           -1.58425592319866        1.54322161750064       -0.00618557504519
C           -0.51714386456168        0.74951099522615        0.00100579052201
C            0.70372204027805        1.44412693354534        0.00552215645987
C            0.70744094702118        2.85858666462926        0.00694159296893
N            0.73981657597112        4.00350351790688        0.00786870546120
C            1.90958925220851        0.74220084193875        0.00580192988382
N            3.16333101597624        1.15451046509202        0.00839530074436
C            3.88359893162292        0.00029388840390        0.00538556244307
N            5.20427495621262        0.00040099632784        0.00686023095745
H            5.69622429408297       -0.87729597124432        0.00489711219972
H            5.69607714669774        0.87817635127811        0.01005149916729
N            3.16352902932293       -1.15403988325393        0.00077517872764
C            1.90971747854992       -0.74193518974198        0.00073728398276
C            0.70396933900727       -1.44405908061549       -0.00156233307501
C            0.70792308602257       -2.85851582433299       -0.00384507937766
N            0.74050342602214       -4.00341627626183       -0.00382770750222
C           -0.51701596857086       -0.74964476804859        0.00082429737988
N           -1.58399974696831       -1.54353906467361        0.00609741775920
C           -2.85320399863964       -1.25421395758852        0.00844877875599
H           -3.49329599783068       -2.13229129466175        0.01680723031146
H           -3.49363580541495        2.13164691550150       -0.01999715654347
