25
 energy: -52.312820334275 gnorm: 0.000688943982 xtb: 6.6.1 (8d0f1dd)
N           -1.53417536614813       -3.59199873602399        0.59439932800452
C           -1.57145748563322       -2.46137964511639        0.40760029543119
C           -1.72179815999599       -1.05812097632416        0.26980390709492
C           -2.99483830397471       -0.59203739817711        0.68176118091139
N           -3.56630497352584        0.54983768994252        0.45487007641479
C           -2.94267924880085        1.59731584681675       -0.11411122393142
N           -1.68397835154449        1.92760880103472        0.06589463134944
C           -0.62072695862133        1.18839870799877        0.25033563081857
N            0.46871856702143        1.83847227720465        0.64079264336854
C            1.62410340505307        1.24551342701875        0.45120209200956
N            2.83863906490702        1.70838558264334        0.69111430544436
C            3.65335160124824        0.76154909492479        0.17021913316614
N            4.97056916974574        0.87328374101814        0.20978401640473
H            5.53716760952937        0.14528892967241       -0.19048304635484
H            5.38021054521859        1.68187007095486        0.64485896592935
N            3.05321446296700       -0.32179674763359       -0.40305322778234
C            1.76748448271019       -0.08319327748835       -0.23397549937902
C            0.62306071559532       -0.84646480801247       -0.45651658215058
C            0.72870950434034       -2.12904796854146       -1.03546095186847
N            0.85108439171143       -3.12654773506942       -1.58766166224495
C           -0.60258080250901       -0.27614177610693       -0.06035761178908
N           -3.72231988276423        2.46313443266521       -0.77489953142472
H           -3.33119631385328        3.34019834450387       -1.07208315712132
H           -4.71773287027160        2.32468098010939       -0.77131870702961
H           -3.62746143764026       -1.31196306709543        1.19270660972901
