22
 energy: -45.112181962026 gnorm: 0.000881153683 xtb: 6.6.1 (8d0f1dd)
N           -4.38864418358374       -2.02613200475179        1.04504253043186
C           -3.63551321077542       -1.24225921004309        0.67752246005944
C           -2.73938537240438       -0.26235596811700        0.24343049156266
C           -1.37282446061453       -0.37510109618483        0.01255715565537
C           -0.95382659632101        1.00525009177197       -0.39309415731564
N           -2.03289189917297        1.80326537468950       -0.49447774136490
C           -3.07185386687777        1.07520908643731       -0.13771215997863
H           -4.06220110685074        1.49500249525076       -0.14926695846794
C            0.38461569550431        1.32698933439340       -0.35029182597280
C            0.86728861449860        2.65081576198987       -0.44980674880838
N            1.28518982211468        3.71212818938089       -0.55340368083283
C            1.28037036237302        0.26692149689760        0.00171030348277
N            2.44198047085629        0.48347309892335        0.49906741961489
C            3.43335135908659       -0.30592135640089        0.84454504769737
C            3.76397461636532       -1.47903644198333        0.17825074211528
C            2.85646613767418       -2.10844383707963       -0.68342480047189
N            1.55722830715504       -2.01737438346187       -0.64738446543799
C            0.73582929950980       -1.14613813774832       -0.12446580074062
N           -0.52987752605275       -1.39011252779428        0.08473375404669
H            3.22489335295993       -2.82951873533287       -1.40519492707495
H            4.77080043123871       -1.86275922155181        0.25547189182832
H            4.11512634641680        0.13089046231724        1.56397881947250
