25
 energy: -48.303682095242 gnorm: 0.000852546291 xtb: 6.6.1 (8d0f1dd)
N            4.18798904460972        2.90113687838354        0.66283696083681
C            3.64663081449784        1.91365782884957        0.43456152129573
C            2.97941363201816        0.72119991215977        0.15627306804836
C            1.59164892234865        0.50374035949100        0.12933496316159
C            1.46241645112221       -0.92935201812750       -0.22259416640481
N            2.66514784157082       -1.49325148809495       -0.38044651934537
C            3.55787287819646       -0.53072010011084       -0.15312009104627
H            4.61022800348523       -0.74590075821148       -0.21302698740868
C            0.20722014130628       -1.50973302996048       -0.31319756278644
C            0.07129138420328       -2.88399169647580       -0.60063560935305
N           -0.07417550226318       -3.99657356966041       -0.83945898711870
C           -0.94913899379306       -0.72425988590673       -0.04931554843222
C           -2.12980261196247       -1.35839643408841        0.28414823562044
C           -3.33149372970126       -0.75567026248864        0.72226965597562
N           -3.77689006226627        0.43989120301872        0.50652900947548
C           -3.08719593178916        1.41372531786269       -0.12044210996553
N           -3.82941998660369        2.36658724990850       -0.70572834640610
H           -4.82873078046497        2.33417394441122       -0.60714121357140
H           -3.37931793634930        3.19599355113813       -1.05046118751702
N           -1.78984036457188        1.61107886041715       -0.05996602314511
C           -0.79739798435553        0.75477990314414        0.08220424008234
C            0.47742575866817        1.30194136562338        0.26210932432023
H            0.56267337557374        2.36685544567890        0.41549882209766
H           -4.01418235291335       -1.38598043278809        1.28385085618413
H           -2.09949372726626       -2.44088572717298        0.33911901850320
