26
 energy: -52.813445291677 gnorm: 0.000872176311 xtb: 6.6.1 (8d0f1dd)
N            4.46518755273489        1.86431722744080        0.72589196357566
C            3.81802453488742        0.97090077004955        0.40705868129804
C            3.07480849971637       -0.14305695714357        0.01462328766086
C            3.62809430697355       -1.36939197060796       -0.51402773447681
N            2.73043183161488       -2.27232138477011       -0.79711230170525
C            1.52057787676008       -1.71751243545812       -0.48257500364776
C            1.70580761694138       -0.34655824741956        0.02871362317895
C            0.57989950548259        0.44449696777950        0.32830644514201
C            0.75917500077045        1.77934804345904        0.75139392700497
N            0.92428225406047        2.83608668149377        1.16482875770313
C           -0.69113660538032       -0.11822476259953        0.21080863059880
C           -0.81394584065194       -1.58855118519656        0.02320252822096
N           -1.82689999238351       -2.28813320901066        0.43318562076319
C           -2.97808127846290       -1.88362132753802        0.93091894000593
N           -3.67345933714278       -0.84662834237239        0.57582083717050
C           -3.19891518594284        0.23297787880225       -0.05203812582245
N           -4.13218307626928        0.99940038621094       -0.63905877955968
H           -3.90421302032782        1.90385166963099       -1.01720350367718
H           -5.09443906133423        0.72026489902651       -0.55112611956578
C           -1.84249970785707        0.67539894585205       -0.01954959794638
C           -1.65981880269867        2.01323818929858       -0.43647918841807
N           -1.62594966939002        3.08521070029837       -0.84803221239873
H           -3.47107810439293       -2.58579440126045        1.59389945572829
C            0.29486263498766       -2.30653471802649       -0.50668115907701
H            0.16739968323754       -3.34616654918416       -0.76097613686922
H            4.67542574996551       -1.55669368075396       -0.67276257518845
