29
 energy: -55.988112583710 gnorm: 0.000804183456 xtb: 6.6.1 (8d0f1dd)
N           -5.52165873962957       -1.09487524998670        0.63272014192552
C           -4.42773117400901       -0.81603152604765        0.40967011737368
C           -3.09322151399559       -0.47997022272248        0.12594755363482
C           -2.23860683234882       -1.56061892223007       -0.33206190354584
N           -0.94861265507161       -1.61980691071140       -0.27889590823413
C            0.00877923907304       -0.71285871675199       -0.09120397391870
N            1.19433996075097       -1.21419212454515        0.14682699952889
C            2.25895151445639       -0.41518849462880        0.16129757528193
C            2.18633590309274        1.02317105532544       -0.17078239134168
C            3.52148848761160        1.53455866711119       -0.17098661676688
C            4.35319272175036        0.50874286358723        0.14890810542816
C            3.59507790052373       -0.71343414917635        0.35366185659773
C            4.15821501299397       -1.94769299446145        0.67348643565329
N            4.65398329961800       -2.95009653217015        0.94090985414951
H            5.42347038047311        0.55720234614331        0.24126133441773
H            3.79000386626567        2.55358890689078       -0.37593308975158
C            0.95831986089680        1.57545204563779       -0.39608840317465
C            0.81768097007600        2.93994171507457       -0.72943650555034
N            0.69890895539585        4.04968956302814       -0.99693885734644
C           -0.22097515375051        0.74713865594805       -0.22681961014899
C           -1.41732690138287        1.37649866228995       -0.04442614279799
C           -2.71197316121940        0.85035438575766        0.26212836087107
N           -3.62631781747667        1.75794388419164        0.66721300972780
H           -4.56709438807845        1.47262294139384        0.88074713576573
H           -3.38628202842005        2.73048439748512        0.73996486203368
H           -1.38725038287461        2.46307821707280       -0.05478276461440
N           -2.85594523555004       -2.66265892081821       -0.80793158869305
H           -3.85121849555378       -2.78020213486418       -0.72578083313882
H           -2.27703616141733       -3.46016111842309       -1.01093462726586
