25
 energy: -49.082345480217 gnorm: 0.000989059427 xtb: 6.6.1 (8d0f1dd)
N            5.91902228920730        0.06550384273189       -0.22953053214103
C            4.77907022423057       -0.04626532499702       -0.18367432968525
C            3.37149446115905       -0.18513936786998       -0.14741878420779
C            2.84739052711543       -1.43180378590940       -0.49293946839048
N            1.64800398304800       -1.88524351625778       -0.22272837601936
C            0.51233855567944       -1.29574314869559        0.00092395560592
C           -0.59025719605836       -2.14678232250300        0.32134317865900
C           -1.84767242230166       -1.63395797907923        0.28551880940844
C           -2.02229709540414       -0.21603849918624       -0.09650653731878
N           -0.99084598207692        0.61826665137318       -0.19245323709108
C            0.22352937291478        0.15901460061512       -0.09527968420065
C            1.25902205296939        1.11336681291422        0.18658325356870
C            0.78259665900496        2.39924930664994        0.56133959175391
N            0.44628859898693        3.44910623634683        0.87060843434364
C            2.62608481734884        0.94662067231031        0.24320209120696
H            3.20247160610306        1.81140855519733        0.55158808204721
C           -3.37711442193629       -0.00253438592326       -0.27274988905393
C           -4.00898034240154        1.16752421129312       -0.69869690190182
N           -4.55675060391741        2.11366012126734       -1.05065298683989
C           -4.05854835742180       -1.24042866725915        0.04743771384481
C           -3.15669628367291       -2.20275274534389        0.38067081405664
H           -3.36798575813558       -3.21366925464617        0.67240706186471
H           -5.12775985554764       -1.34770721068490        0.01124587907643
H           -0.38688416380978       -3.19816224576493        0.46444738520031
H            3.52028261070984       -2.17842289257893       -0.90142201888412
