27
 energy: -52.539010806009 gnorm: 0.000469650916 xtb: 6.6.1 (8d0f1dd)
N            5.83825675791974        0.93041598950049        0.00063250223544
C            4.71219924556188        0.71508690173278        0.00031184830393
C            3.32252121611818        0.44932171729543        0.00052799207823
C            2.47071202906508        1.55703884219798        0.00275237742216
N            1.16285797963179        1.62438380296401        0.00137113347002
C            0.22968724898057        0.69291490645865       -0.00005903904341
C           -1.07806113293822        1.24017769981038       -0.00205638233122
C           -1.22676298552474        2.64683344412681       -0.00357720924641
N           -1.37451020876327        3.78299263508840       -0.00464565168808
C           -2.19767714494609        0.42110586351547       -0.00170128656146
C           -2.02426957200041       -1.04605975226497        0.00050347834166
C           -3.29700358856978       -1.55743283149564        0.00073012474639
C           -4.16109781676477       -0.41035907804680       -0.00120768268982
N           -5.49232969424817       -0.42328696100821       -0.00161723624176
H           -5.97802623051609        0.45797232632060       -0.00295140108848
H           -6.00691310682999       -1.28603829407708       -0.00063054769058
N           -3.48641807906353        0.75558423382388       -0.00263080799251
H           -3.61173368079162       -2.58143942458435        0.00203837861169
C           -0.73551543245882       -1.58870057046159        0.00146370736722
C            0.38596851372061       -0.78666304159577        0.00085072415755
C            1.66639035468604       -1.43039741689658       -0.00033358245076
C            1.66357034062485       -2.85228429210147       -0.00142656073563
N            1.72107964209871       -3.99746829713707       -0.00218374264196
C            2.94240704250624       -0.90405062316600       -0.00113149676203
H            3.75523856450374       -1.62243426003579       -0.00261186175154
H           -0.62655728755747       -2.66433010206877        0.00245539790586
H            2.94283178295555        2.53588344860521        0.00521128697553
