23
 energy: -48.855057255471 gnorm: 0.000655824061 xtb: 6.6.1 (8d0f1dd)
N           -4.77491440930770       -1.88631816534709        0.87382847859753
C           -4.04686752047491       -1.05768422137221        0.55703293968498
C           -3.17431007628384       -0.04302497900703        0.15110911694254
C           -1.77552685015372       -0.04631893264421        0.25924493289078
C           -1.36552958213953        1.26814751393692       -0.34424015456549
N           -2.43943584759454        1.93787664589473       -0.71186492812689
C           -3.50710545586021        1.22640509608551       -0.36962090538139
H           -4.49559337378890        1.61955769986589       -0.51890441257903
N           -0.10477618750565        1.42277218417302       -0.58216369167457
C            0.81852743853010        0.55733037449228       -0.29042984681856
C            2.13787980440984        0.99629398630682        0.02288365743166
C            2.27841744905544        2.38634581950835        0.24179295878504
N            2.41980730809389        3.51267644498149        0.40239014147959
C            3.25940500213259        0.21376588547817        0.30612166083361
N            3.44589550390345       -1.07400358737687        0.17811592152418
C            2.48841791452441       -1.97409866040419       -0.06217712429187
N            2.90703608539565       -3.18370284883596       -0.44928999486400
H            3.89516908596280       -3.35792644513186       -0.51306161363075
H            2.24679209640185       -3.93984908874333       -0.50806473292904
N            1.19863840886705       -1.85803851489620        0.20720073840576
C            0.39798291288490       -0.83353797018149        0.10952330733463
N           -0.87861974124565       -0.98003144237326        0.36755076798697
H            4.13763753759364        0.74663190259165        0.65915953446524
