25
 energy: -47.506342189339 gnorm: 0.000510583392 xtb: 6.6.1 (8d0f1dd)
N           -5.59545835716360       -0.36465994024840        0.61376757005181
C           -4.45453612909628       -0.36253453008254        0.47115554705458
C           -3.06223511834934       -0.30910419823274        0.29823737945450
C           -2.28765169923006       -1.43865103379547        0.54172349040500
N           -1.06761923924732       -1.65428446489148        0.11589957220690
C           -0.07836541059388       -0.84679706310112       -0.12883612817753
C            1.13195824937130       -1.32978888503758       -0.66129568836796
C            2.24933301979435       -0.56539134577020       -0.44201578318721
N            3.54178981586181       -0.85450768024386       -0.65533398065317
C            4.23226585734313        0.10985343264765       -0.03022742623937
N            5.56742732884270        0.11293600760908       -0.04544920204351
H            6.04475244024248       -0.61041407284750       -0.55485824962119
H            6.08943238787893        0.82127058805321        0.43784937680561
C            3.40293348191133        1.07569133025992        0.63633705837126
C            2.12075699223731        0.70100084631394        0.34829471900374
N            0.93963022553492        1.27512433879608        0.59322373768334
C           -0.12997366542260        0.62190930112646        0.23335865196474
N           -1.23957669947507        1.28909499539162       -0.02150353587034
C           -2.48054423540161        0.91269680274953       -0.19268935395496
N           -3.28464039111499        1.80308050849019       -0.81142719764932
H           -2.90426342222028        2.70836246064768       -1.02746631212924
H           -4.28083274274780        1.66620126302768       -0.82177800201332
H            3.74617338202328        1.92109359583456        1.19634964397959
H            1.18432246020300       -2.32402892192775       -1.07655436432204
H           -2.76116699698344       -2.30302650437370        0.99565567554063
