24
 energy: -47.787317594402 gnorm: 0.000854544311 xtb: 6.6.1 (8d0f1dd)
N           -1.31744325571296       -3.83121428391927       -0.25610906763903
C           -1.47137103851987       -2.69821765212203       -0.15762287777234
C           -1.69895781276697       -1.31113036584129       -0.01344661946013
C           -2.99407032193377       -0.87141187236514       -0.28122981668269
N           -3.52414372078854        0.32187136094000       -0.16573198352258
C           -2.83197075865251        1.44181636933251        0.05367845198589
N           -3.54712542267026        2.49533361476399        0.48306607029005
H           -3.11716876539650        3.40362211457272        0.48709996522984
H           -4.54605167441224        2.40402887669568        0.54327793744266
N           -1.57138781827479        1.68250714902844       -0.26233531175625
C           -0.52157814435525        0.90871581502339       -0.20539897263842
N            0.63450704110826        1.42245277698414       -0.61335978172477
C            1.75290077763640        0.76002242242994       -0.49240466944465
N            2.98905717405337        1.18430464393721       -0.64366466846889
C            3.79003977859844        0.22250527006243       -0.11411176474387
N            5.11793923185472        0.37361692977974       -0.14804515485793
H            5.49721264671499        1.17428700955686       -0.62217397959830
H            5.72712185411281       -0.31084663999251        0.26143904223590
C            3.06909598495710       -0.83686593135800        0.48980108774185
C            1.75007584769621       -0.58509746308943        0.18557483775375
N            0.59468030606623       -1.13684882710186        0.45416018274399
C           -0.53314238481295       -0.51767090550050        0.22875576934717
H            3.47457914225174       -1.66955062293733        1.02681110962213
H           -3.70379071325356       -1.63014867677927       -0.59793981738327
