28
 energy: -56.259540300033 gnorm: 0.000974124535 xtb: 6.6.1 (8d0f1dd)
N           -5.96842808786169       -0.64398753424344        0.50518519036078
C           -4.82580554863719       -0.62884169752438        0.38555465120516
C           -3.42315186227069       -0.58398748859060        0.26099299218917
C           -2.74460770599038       -1.80054793606982        0.42416299165733
N           -1.51907720857002       -2.10660942568705        0.14016903720263
C           -0.43627311259672       -1.37233713722541        0.01667087569074
N            0.65956332542161       -1.98841543739295       -0.38187515312487
C            1.82793855737967       -1.37563962833667       -0.39150866583100
C            1.91613812440170        0.02910702711059        0.11658515419417
N            0.81398885359009        0.67924066180592        0.36424853744365
C           -0.36378504803323        0.10337238700632        0.23209012323320
C           -1.45882463119756        0.94267926937402       -0.07904167265016
C           -1.09187572697803        2.25314232631606       -0.46619908775991
N           -0.84091896987424        3.32600912200803       -0.78847380697909
C           -2.84685133710279        0.66317645274987       -0.09846051635948
N           -3.68150293270176        1.66264331956597       -0.44107685274800
H           -4.67748998904549        1.51785733824979       -0.41704854186130
H           -3.32099050987595        2.58053746406293       -0.64481771586024
C            3.26719795954950        0.32305768855472        0.29163814291037
C            3.85086143832691        1.47913810151790        0.80640976122998
N            4.39700030606006        2.40005388360981        1.22614600793229
C            4.00287956156603       -0.81362449943788       -0.16846872608158
N            5.33668007095538       -0.88679420755504       -0.17995328860567
H            5.88397537003843       -0.10455611945533        0.13951439959825
H            5.80295907739078       -1.72144768719130       -0.48973287686436
C            3.11029159757258       -1.84988259789133       -0.54267067537136
H            3.39422078975680       -2.83630668018691       -0.85184288640833
H           -3.35028826157433       -2.65266119103884        0.71950633955498
