28
 energy: -57.045723673819 gnorm: 0.000829108765 xtb: 6.6.1 (8d0f1dd)
N           -5.38992001074378       -2.10860062816927        0.02539376366832
C           -4.34199917042373       -1.64531435681028       -0.04818424173814
C           -3.06598789366308       -1.05232572206276       -0.15375620044416
C           -2.00938527832762       -1.93068675669531       -0.52623720886211
N           -0.74015702904064       -1.77010305313347       -0.42546184168710
C            0.00440804238344       -0.68164238946851       -0.23364571224955
C           -0.47401468785015        0.71139674005793       -0.31050503083264
N            0.38755100206676        1.73711730973940       -0.45783595867780
C            1.65576685216540        1.54024053372989       -0.27822958942787
C            2.22808559277970        0.22268813715637        0.08494509795805
C            3.59318800864372        0.39957111785405        0.20526709976042
C            4.56272300874188       -0.56185331354849        0.49620092174317
N            5.38283738611847       -1.32717442319119        0.74557594081501
C            3.87830246032487        1.79795637295374       -0.05507570520425
C            2.73338111293046        2.46837240729582       -0.36465570781150
H            2.62578606977477        3.50896268255737       -0.59697099743494
H            4.87087924214935        2.20944804686317       -0.01518023468723
C            1.36408885549441       -0.88215730938825        0.04223547115835
C            1.84517738499986       -2.20091237374158        0.21440479818450
N            2.23493581059942       -3.26598944335915        0.37314877268109
C           -1.78798939838508        1.10489124702440       -0.08465937846890
C           -1.96783322607642        2.50938666072912        0.01910498986958
N           -2.18406808390716        3.63188344473589        0.11302157579958
C           -2.97228266301918        0.31698485584057        0.13374992663507
N           -4.06592331664130        0.96758203520081        0.56901024462630
H           -4.93626715173513        0.47174279379943        0.67647724036484
H           -4.05099883234200        1.96494379252564        0.70839840069449
H           -2.30929830362224       -2.92732226349058       -0.83550598572901
