24
 energy: -43.775904385702 gnorm: 0.000501238085 xtb: 6.6.1 (8d0f1dd)
N           -0.71713508183890       -3.85535476018895       -0.35194608496341
C           -0.92854300576643       -2.73312510538626       -0.24507580455233
C           -1.25230373621690       -1.36227046806149       -0.11497258741304
C           -2.56918108739260       -1.02093122094707       -0.37733533177660
N           -3.20029679807720        0.12571114782715       -0.17938037705762
C           -2.62053426913363        1.26708072714102        0.13132147755763
N           -3.40448548187439        2.22136953986374        0.66394465135779
H           -4.38544816550692        2.03367322428967        0.77033479610111
H           -3.05130396074715        3.15657248800193        0.75781924178987
N           -1.37319114084692        1.66055346895445       -0.17708765689822
C           -0.28734405977000        0.95623925684241       -0.21378538348219
C            0.91502585978436        1.66075977846993       -0.56517061751787
C            2.10376059648688        1.06847558384284       -0.30928249870070
C            2.12441818366749       -0.28765950541547        0.28709486564061
N            1.00965095487856       -1.02370930361580        0.40082078025666
C           -0.14016561543141       -0.48132822223634        0.12997101574777
C            3.42009963244114       -0.57719455315626        0.60568230567217
C            4.23892495070411        0.53347631212903        0.18313887001326
C            3.47156317971943        1.51167068860926       -0.36368877136064
H            3.79752001301665        2.44460992162738       -0.78234977555648
H            5.30828647616854        0.55903573686651        0.29774843095629
H            3.77961522414421       -1.46483450511942        1.08861625488457
H            0.81655313998166        2.68564974120978       -0.89373751555471
H           -3.22609676899062       -1.81286393664807       -0.72266063474394
