25
 energy: -52.311626439981 gnorm: 0.000540960568 xtb: 6.6.1 (8d0f1dd)
N            1.03398777754285        3.80158106869186       -0.64871344385978
C            1.38159229150414        2.72877342409856       -0.43962181846537
C            1.84921461745853        1.42114921159602       -0.17091946653561
C            3.20852635009764        1.19778462254143       -0.39726989096828
N            3.93622140781183        0.13389666797329       -0.16921368949018
C            3.45351567568748       -1.06778768720544        0.15215277142094
N            4.32492451295504       -1.92831114594209        0.69565156877482
H            5.28494057577078       -1.64822058037692        0.79558101469533
H            4.05904209883162       -2.89172589124984        0.80293398093898
N            2.26710802702653       -1.55758045390156       -0.17235457109592
C            1.10056529823063       -0.97925781092944       -0.19897184645505
N            0.06323365697433       -1.71579909122504       -0.59284005781408
C           -1.15550421824170       -1.25749226837124       -0.52981851382179
N           -2.29234471724462       -1.91195928373462       -0.68364111852792
C           -3.26902188095448       -1.10880580167090       -0.21697564175371
N           -4.54662695641619       -1.47822605773448       -0.25162682659472
H           -5.25795417063592       -0.88682797455051        0.14358983124504
H           -4.78817446907767       -2.36066954936392       -0.66896121977107
C           -2.76669663453697        0.11112508837572        0.35342894989029
C           -3.54433317697993        1.06462453318261        1.00364347805075
N           -4.24470658078329        1.80639246235899        1.53374888392747
C           -1.40422167295585        0.09332578593573        0.07465047369769
N           -0.38190730402525        0.86137952399851        0.32423536723985
C            0.84623105369683        0.45198405409630        0.13176996597608
H            3.77748637786794        2.03882418890610       -0.78210527200322
