27
 energy: -52.528717214114 gnorm: 0.000559253294 xtb: 6.6.1 (8d0f1dd)
N            5.32007686243501        1.05615249979167        0.70888509048128
C            4.19458072541008        0.96548540346351        0.50432261925011
C            2.80874447562723        0.83492708038288        0.26276553232615
C            2.02650573730401        1.95447847348680        0.47777035600090
N            0.80066265857198        2.17226822913672        0.05153455253260
C           -0.18623323919859        1.36561325537485       -0.17695998204296
C           -1.40096633475172        1.98070892154156       -0.61663045836565
C           -2.57137362978974        1.32813010342564       -0.41339773753373
N           -3.85258293336307        1.78186073085089       -0.60885115785746
C           -4.63217544639198        0.83754648841648       -0.15726801045880
C           -3.92886292762288       -0.30427464190148        0.36597991962044
C           -2.60459359930501       -0.01571760027475        0.19501371646080
C           -1.38429398192960       -0.71491365092312        0.38828072439807
C           -1.44688228304328       -2.03305643896142        0.88649422554635
N           -1.54724756394303       -3.06793530769862        1.37215880525541
C           -0.18242145130997       -0.08661304938130        0.10889967238039
C            1.00140003418488       -0.84276742218027       -0.17024558079676
C            0.78015314798720       -2.17430602509438       -0.59810967624730
N            0.67802310035498       -3.23669623858534       -1.02191942039874
C            2.34626816961782       -0.44115929913482       -0.20489747846452
N            3.28553111039000       -1.31807227645568       -0.62090921357019
H            4.26103695278227       -1.08031403818340       -0.55658235355598
H            3.02942872526472       -2.26179705555796       -0.85999085396173
H           -4.37292524337166       -1.18597708599922        0.78346714024033
H           -5.70187493500646        0.94808980830035       -0.19674184836096
H           -1.36444056582280        3.00401234085402       -0.95397107060103
H            2.49541073612886        2.82490750162820        0.92449693038528
