25
 energy: -48.293498505390 gnorm: 0.000858563683 xtb: 6.6.1 (8d0f1dd)
N           -6.23472037982110       -0.52927188116814        0.09750071163233
C           -5.09833955395622       -0.37348771005671        0.07677798985889
C           -3.70143073481376       -0.18214796226682        0.05844227525098
C           -3.14893555518242        0.90260320484049        0.76929413601332
N           -1.99640867818802        1.45226319850596        0.51803195213532
C           -0.88675442937753        1.00225528956772        0.01078264397570
C            0.19038731479674        1.82146809393668       -0.33404451208028
C            1.44644993740260        1.24412896477853       -0.31551540589628
C            2.73204004262985        1.76004559343747       -0.42078999785123
C            3.63814284921696        0.75068644452556       -0.06832423066479
N            4.96930123121871        0.84036700847226       -0.02345215314374
H            5.51478192162125        0.04132965207907        0.25598213020692
H            5.43757497600549        1.69279070299781       -0.27737404270087
C            2.91442280328577       -0.45485890342078        0.27508043447252
C            3.54315279498791       -1.63306132399091        0.67213456223260
N            4.14166362413724       -2.55996753932317        0.99738435571823
C            1.56613648726468       -0.19103630234398        0.09976520017280
N            0.53208542890855       -1.01381229840173        0.17020247416732
C           -0.65312130215478       -0.50197428068294       -0.06995069987973
N           -1.61375393583926       -1.22426539733068       -0.57196194227737
C           -2.89572278894851       -1.03341328318988       -0.71433951387435
H           -3.37046043086265       -1.69380920531208       -1.43311736621486
H            2.99473213095644        2.76495067639566       -0.69071140714363
H            0.04638795040955        2.88202391027307       -0.47987967537803
H           -3.77075549749677        1.44574205587233        1.47219250326944
