23
 energy: -44.049071106179 gnorm: 0.000711268737 xtb: 6.6.1 (8d0f1dd)
N            4.44251031128358        1.56483986952275       -1.52337296832009
C            3.73204608530297        0.84104087139250       -0.98370232482610
C            2.89327976566665       -0.06978513368295       -0.34195466884703
C            1.54660212576539        0.06201512508018       -0.01095454189711
C            1.18585372479567       -1.24940507042944        0.60426407474886
N            2.28925394627517       -2.02456533183918        0.71883910685727
C            3.27831323359863       -1.34264114911417        0.18183311494293
H            4.27465980430796       -1.74891814599064        0.16012401972288
C           -0.13525097173437       -1.57562988563439        0.71149539470224
C           -1.08379401453016       -0.59883482119773        0.31344758182693
N           -2.30481110803279       -0.95691414345186        0.06933309447499
C           -3.36894587998864       -0.25425859782057       -0.29748815653755
N           -4.31050351341262       -0.93649335251763       -0.98027092279946
H           -5.21296020789661       -0.53232786930108       -1.15201872195361
H           -4.16165939745844       -1.91112271506026       -1.17457571018573
C           -3.63130159160851        1.05042673090387        0.17158913308199
C           -2.64804674828335        1.88321587971052        0.68085190345277
N           -1.34782837241111        1.81064401178040        0.53909584047017
C           -0.57956561598569        0.81446356191356        0.15284599282614
N            0.67316599857478        1.03735719191537       -0.15845543581693
H           -2.96669570772425        2.78016425840256        1.20357909728419
H           -4.66107690553850        1.37843271213232        0.20518643497597
H           -0.46545238286623       -2.58254971291542        0.91695372251652
