25
 energy: -47.499395971638 gnorm: 0.000981624562 xtb: 6.6.1 (8d0f1dd)
N            4.66801695222721        2.15508921766131        0.46435738922115
C            3.98925861506279        1.24046001382286        0.31060101521474
C            3.19305396681093        0.11295398604592        0.10874904443470
C            1.79683839745883        0.01701040667697        0.19542813600454
C            1.50877166431528       -1.40594776735007       -0.15066155641731
N            2.64764760287536       -2.06991170605666       -0.34631961683434
C            3.63487589690654       -1.20712840358936       -0.14866858193666
H            4.65855024195659       -1.53129111269228       -0.20991829048172
N            0.28649894681378       -1.74476778577923       -0.41605501907293
C           -0.72544871275565       -0.89910478039116       -0.23335341615782
C           -1.97649038497252       -1.46674181297421       -0.02951352167201
C           -3.25014829345277       -0.87626060280490        0.08110562573072
N           -4.28351674543695       -1.73014832436073        0.30459096591791
H           -5.22892289396750       -1.39379863344107        0.27546317583258
H           -4.13372588834390       -2.72136972115924        0.24948556812302
C           -3.54172537690990        0.47953288535341       -0.02320457134092
C           -2.62014293614539        1.54054285600420       -0.09453192989424
N           -1.31485402603120        1.51259260370524        0.08459765271250
C           -0.43423194437913        0.54250536873646       -0.00056207995897
N            0.82730277262154        0.89170610511536        0.18076930583022
N           -3.10567993093587        2.79058335307370       -0.28065058419976
H           -2.45418384422122        3.55266304835952       -0.20694810007839
H           -4.09053839664060        2.97909221307375       -0.24378088184810
H           -4.58594943497587        0.75947504331852        0.03170994223353
H           -1.94684337858183       -2.54069026304394        0.11310933603755
