31
 energy: -54.638041561449 gnorm: 0.000586511270 xtb: 6.6.1 (8d0f1dd)
N           -5.67246449842449       -0.17834637557862       -0.22490356958673
C           -4.52335762445954       -0.16366927801612       -0.14351486664405
C           -3.12366530273615       -0.15060066279406       -0.04542855650167
C           -2.48325061410327       -1.42263976228412        0.13413021973827
N           -1.21950054538020       -1.73319367358869        0.07389806809478
C           -0.10311990203521       -1.00595317565173        0.00168292789628
C            1.05787735671169       -1.75387305132425       -0.12450548486849
C            2.31915124195621       -1.16904321924508       -0.10146838359063
C            2.43368063115675        0.29671211393180        0.08164392446514
C            3.77815857258570        0.61967712521689        0.10971760803579
C            4.50040955046898       -0.57976529652828       -0.04968385853132
N            5.84049917797029       -0.68502136490542       -0.07903529955257
H            6.41518258427428        0.13235802082506        0.02121624281993
H            6.27914162479692       -1.58141059777010       -0.18986709410806
C            3.59679619002838       -1.67363917912261       -0.17816567057801
H            3.88227271286823       -2.70008863259917       -0.30727724469617
H            4.20164178991822        1.59857949887696        0.22842463889740
C            1.27364765397607        1.06505110517537        0.16869946938283
C            1.40685039516449        2.45637963457026        0.31493823774576
N            1.53089276879254        3.59390923399341        0.43732569781932
C           -0.01656621500856        0.47283214978624        0.08177197935077
C           -1.09837055954588        1.32699071412500        0.00923721794574
C           -2.48497568202911        1.09487914151523       -0.11346430942326
N           -3.25502076884482        2.19802220126797       -0.30132431242723
H           -2.84181865808765        3.11264958124466       -0.27149246143015
H           -4.25697741334658        2.11893969587719       -0.32580827437214
H           -0.84263564003650        2.38267199565298        0.01130785616756
H            0.95441900314802       -2.82505901717997       -0.20806144449166
N           -3.29789455530540       -2.48556764805286        0.38120147304037
H           -2.86895287963053       -3.39406333191461        0.37815030661978
H           -4.29301145154293       -2.41088263150531        0.26259211158277
