27
 energy: -52.530345993507 gnorm: 0.000944950829 xtb: 6.6.1 (8d0f1dd)
N           -5.21953405425128       -2.10969595786948       -0.26439717549079
C           -4.17496563076033       -1.65783275075309       -0.10895376498649
C           -2.90110266424100       -1.08814539917916        0.09028746976280
C           -1.88730138130585       -1.97557932261424        0.57022296746053
N           -0.61823180071542       -1.85149662607187        0.53837908739833
C            0.17480330206820       -0.80487178031788        0.25481309138216
N            1.41187168587485       -1.11786777107898       -0.01451361782813
C            2.33563739145806       -0.16053764481477       -0.09893850516538
C            2.04143575717420        1.24195816392172        0.21963867886748
C            3.29092717498520        1.96004960998644        0.17991417648705
C            4.26511307890846        1.07821274832615       -0.14275233255452
C            3.70035381917948       -0.25523601171394       -0.30703152770018
C            4.44624911199654       -1.39657270636121       -0.59592676374339
N            5.09184268435169       -2.31515046159619       -0.84322815968849
H            5.31273886845630        1.28773730791555       -0.26172722420382
H            3.39644329849587        3.01396545211898        0.35318261419272
C            0.76350646302135        1.59491189441104        0.49907272691436
C           -0.26721154604990        0.60691549544265        0.35599306320783
C           -1.56362877937851        1.03952079094437        0.12695049062093
C           -1.76407482546243        2.44265785333982        0.07318752674481
N           -1.97422702757186        3.57114194201277        0.04213794568857
C           -2.75964559380176        0.27642356176883       -0.16272607711080
N           -3.81606568286741        0.96181870232443       -0.64249713343417
H           -4.68667693449629        0.48331779329990       -0.80846484901152
H           -3.78040009686971        1.96041901000250       -0.76309982014634
H            0.49818277177142        2.60783011997421        0.77130269092091
H           -2.24099406936976       -2.93339591431853        0.94201852621579
