27
 energy: -47.740559192101 gnorm: 0.000720316825 xtb: 6.6.1 (8d0f1dd)
N           -5.49571125588595       -0.61673255506049        0.00126835373039
C           -4.34745857661096       -0.55469635769750        0.00127858460578
C           -2.94323973274797       -0.46303276134564        0.00083297999092
C           -2.24242481993774       -1.71699198030075        0.00014265476321
N           -0.99733347763152       -2.00354725936820       -0.00017337417102
C            0.10436248517267       -1.21010802285792       -0.00004240110808
C            1.29005607501369       -1.91144733259432       -0.00036322166108
C            2.53329577810484       -1.26952867268862       -0.00040248168894
C            2.57115325920170        0.20178703495310       -0.00016734236043
C            3.94355774317217        0.59124492977885       -0.00033042937697
C            4.68909821516891       -0.55349258318038       -0.00063395850269
C            3.83352616376354       -1.70448203243856       -0.00068194763744
H            4.17105299110739       -2.72343362956499       -0.00090882067885
H            5.76357526095826       -0.60371657282372       -0.00080809256620
H            4.29814244608577        1.60426070678815       -0.00022714900215
C            1.40697966628146        0.92226113259106        0.00016402994832
C            1.47777053781992        2.33206297691535        0.00024087322120
N            1.54761079958353        3.47831628526106        0.00038978647858
C            0.11546130491179        0.26434690331608        0.00033565543593
C           -0.97715741341219        1.08736493527254        0.00084626308456
C           -2.37884346469099        0.81006148039167        0.00115906842722
N           -3.18905203870343        1.89182468635282        0.00186779177244
H           -2.80838741374045        2.82121145876822        0.00190421494598
H           -4.18820928301727        1.77362519367730        0.00197288041188
H           -0.76076743504849        2.15170803496067        0.00110097109750
H            1.23289055303534       -2.98885624936228       -0.00061478429769
H           -2.89359952795404       -2.58843537984348       -0.00011898106245
