25
 energy: -48.293182233594 gnorm: 0.000747417548 xtb: 6.6.1 (8d0f1dd)
N           -4.21381914758575       -2.82025071117212        0.83684100362195
C           -3.64635762080119       -1.86106531155392        0.55443819333533
C           -2.95142112533149       -0.70288956647591        0.21130234342865
C           -1.56867808761936       -0.51223472934023        0.17303517397156
C           -1.41092737793761        0.89572638633108       -0.26746453692497
N           -2.61713141114681        1.47023989288966       -0.46774715546563
C           -3.51505394465834        0.54609277755240       -0.18618107882172
H           -4.56577778658719        0.76417816495363       -0.26440693432809
C           -0.16195631590486        1.46578190186396       -0.37376243160339
C            0.03031287037246        2.81366982499828       -0.73872833120400
N            0.21459870896111        3.90036855739134       -1.05377858138058
C            0.96389109619743        0.67666605995405        0.03377496074133
N            2.02461312076777        1.28298304856977        0.44689371356479
C            3.18611588561205        0.80135690219976        0.87781955347728
C            3.79394655836532       -0.35974250882508        0.48808404480778
C            3.10394080237822       -1.39453913546377       -0.21983651230037
N            3.82240483423087       -2.32048257131087       -0.88621912218963
H            3.34211341465331       -3.10689067635467       -1.28758518078413
H            4.82542179153259       -2.30335489197626       -0.88037550807491
N            1.81330012286306       -1.61283774561304       -0.14374749713753
C            0.79822488757748       -0.81423602108953        0.12593105498962
C           -0.46970200689232       -1.34369074941926        0.32390355782444
H           -0.58862148160248       -2.40113378946626        0.50343428461253
H            4.83928998054290       -0.51435895439225        0.71768073026176
H            3.73422263261270        1.50842542244971        1.49041669497882
