23
 energy: -44.828669879903 gnorm: 0.000472299903 xtb: 6.6.1 (8d0f1dd)
N            5.64761221865211        0.08078913135425       -0.00291261909780
C            4.50368753329421        0.00665408192404       -0.00234764156739
C            3.09399151907129       -0.10484561003698       -0.00146024495980
C            2.35615875187645        1.06586311314156       -0.00111122042554
N            1.03980887826614        1.23869566653939       -0.00042252484835
C            0.07842576001441        0.35611174803435        0.00020648728374
C            0.19412497752577       -1.14251181080762        0.00038423981451
N            1.34537983510074       -1.84376626554885       -0.00024897117141
C            2.56494902186772       -1.44052193900970       -0.00104877715794
H            3.30081455717187       -2.23986117016099       -0.00145520014244
C           -0.94478831130294       -1.91830487571210        0.00122497390534
C           -2.21596931711601       -1.33932927532690        0.00188711459555
C           -3.51069392226151       -1.80323498830014        0.00274250792165
C           -4.33077268483520       -0.63784406082371        0.00304587945767
N           -3.65209023124507        0.49427201491992        0.00244264053230
C           -2.34812158086651        0.13660804239918        0.00168836553268
C           -1.23079597605658        0.93854306555510        0.00088625719137
C           -1.33790636160520        2.35005885523420        0.00096809562238
N           -1.42406466045144        3.49191428968939        0.00047302284546
H           -5.40661175483106       -0.61847559963788        0.00369885626011
H           -3.85458326585363       -2.81802866127348        0.00312500489953
H           -0.82747372026643       -2.99161645152692        0.00136267264687
H            2.89946217335085        2.00624335477389       -0.00147232843853
