28
 energy: -51.479903852463 gnorm: 0.000872328722 xtb: 6.6.1 (8d0f1dd)
N            4.32882713658727        2.49183663288021        0.75015095414000
C            3.62078016548915        1.61383772644487        0.51716445682851
C            2.81929845008848        0.51358918002404        0.23827553539438
C            3.32249500741525       -0.82672776361449        0.06106727575198
N            4.61896348861203       -1.15071194885897        0.15332755081150
H            4.92070117229281       -2.09786407626586        0.00915758243123
H            5.30290660480676       -0.43645171994701        0.33727387231409
C            2.25422760621285       -1.69008876536179       -0.21203869761676
C            1.08601454864613       -0.93793830713519       -0.21162093603261
C            1.43715285994569        0.46702662812989        0.06987437461785
C            0.46490081525234        1.45313626233758        0.04199714890745
C           -0.86291036573685        1.13306202253917       -0.21795236858691
N           -1.67566161044989        2.14378585958067       -0.51315088300965
C           -2.96637032145874        2.17146408248213       -0.63989203177426
N           -3.90224650923108        1.36893022132647       -0.15880048763300
C           -3.70891694778730        0.11964472330614        0.21653693535808
N           -4.75996790273144       -0.46652871336266        0.82614151746973
H           -5.59285424863212        0.07848322985498        0.96499040585257
H           -4.75268131671357       -1.43983541544857        1.07024605761160
C           -2.56551171780857       -0.69677272347366       -0.03702707582519
C           -1.26916189169935       -0.29599265309977       -0.26980171354344
C           -0.25202074744811       -1.28447156994072       -0.37996725968413
C           -0.60121858100939       -2.63083957464730       -0.58090472766186
N           -0.88790776865225       -3.73251899070282       -0.74222590033456
H           -2.72929996235575       -1.76462469530565        0.06563368345495
H           -3.35835178686485        3.07202606869634       -1.10394079111662
H            0.72971451729044        2.49427701582405        0.14444448644584
H            2.32955450593915       -2.74603061276171       -0.38839290557135
