24
 energy: -47.794229270269 gnorm: 0.000541273608 xtb: 6.6.1 (8d0f1dd)
N            5.61002934284592        0.33146199453568        0.53343797114033
C            4.46582850817679        0.34211702281220        0.42465418804536
C            3.06756647100311        0.30822209436721        0.29350162141405
C            2.32259610197906        1.47494322366062        0.48418596077369
N            1.10660936581120        1.69773962011580        0.06909476582969
C            0.09193518640553        0.90119990588812       -0.13200463063673
C           -1.09892950775507        1.36412826135357       -0.70493805390970
C           -2.22622117947364        0.61187746782494       -0.46570267068782
N           -3.52136059880163        0.85283870120268       -0.66185225466686
C           -4.13871278785522       -0.10711998335501        0.05800440143862
N           -5.46129297174023       -0.19923784231687        0.12074194454166
H           -6.02635111662904        0.45083278383189       -0.39625536149108
H           -5.87263590068018       -0.91442792841130        0.69429731046480
N           -3.34288354201122       -0.96571978383146        0.75825591165684
C           -2.12344672045511       -0.59297840561364        0.43351337543582
N           -0.97085334320488       -1.13889289973868        0.76155067285933
C            0.11605327350249       -0.53886787510247        0.32982311604023
N            1.19627690594710       -1.24526891199617        0.11796699608288
C            2.44876556790573       -0.91658476561102       -0.11649386692257
N            3.20185007700175       -1.86933423535947       -0.69711816943698
H            2.78433536645462       -2.76904098667667       -0.86336006801625
H            4.19904681425444       -1.75911056842991       -0.76861210658382
H           -1.13939948334825        2.33528245505883       -1.17351025729511
H            2.83120977517174        2.34981309649975        0.87529990273009
