29
 energy: -60.781794253912 gnorm: 0.000701647985 xtb: 6.6.1 (8d0f1dd)
N           -5.70921015090854       -2.04009504028694        0.04350909691611
C           -4.62103181481580       -1.67961568620545        0.10533796126405
C           -3.29013713347532       -1.21708780666331        0.18538546680243
C           -2.35198215012301       -2.09589751576014        0.76873732152170
N           -1.07217230970377       -2.08248206306724        0.64290715802385
C           -0.21543479713556       -1.14805687709692        0.27378455536712
N            0.98978075397529       -1.56798288750821       -0.04146326144730
C            1.97808177954363       -0.68549701342148       -0.09144825095197
C            1.81489571538793        0.72934621961157        0.32695821073568
N            2.99077729663023        1.36360358302755        0.37967286722406
C            3.90512653350789        0.47208071355238       -0.01297657016140
N            5.19338678661408        0.77393814914217       -0.09954691171929
H            5.86512690274767        0.07886144501998       -0.38066681221892
H            5.49142689440089        1.70547835998878        0.13933983727091
C            3.33524024326244       -0.83535471245625       -0.31238373295128
C            4.08536248254490       -1.93525513231699       -0.71448453295918
N            4.77306039244453       -2.79466320219490       -1.04718967291748
C            0.53559742526231        1.20249283921365        0.55950849214470
C            0.33317477992328        2.52156249318691        1.01975035727025
N            0.19862993919812        3.56171718136278        1.48315417915436
C           -0.54689659938927        0.30476559678441        0.32568018085941
C           -1.79083449321429        0.78434068289185       -0.07641509722024
C           -1.85976026098336        2.15169124329789       -0.45366423684674
N           -1.99711889718403        3.21874061974751       -0.85287403322955
C           -3.02153791446646        0.07528989703454       -0.30496552709165
N           -4.01194105188897        0.73181182495151       -0.93561825806719
H           -3.90252947479623        1.69358141347439       -1.21405289792054
H           -4.91275497606872        0.29335122291956       -1.04111999534074
H           -2.74803150267170       -2.95894589401887        1.29504033107022
