27
 energy: -57.328268702573 gnorm: 0.000365769588 xtb: 6.6.1 (8d0f1dd)
N            5.13789198641991        0.62623996551257        1.12233728539817
C            4.19523524117872        0.06171344226267        0.78877944586557
C            3.06911763469324       -0.66377382632362        0.39719001271214
C            3.01822515592361       -2.09584702813853        0.20569125951288
N            1.84583775448164       -2.53137585010556       -0.16728300530479
C            1.03831230758403       -1.43471744987575       -0.23641809285128
C            1.78607867735672       -0.21887754846228        0.12412083358264
C            1.18283083265964        1.04122725918281       -0.03732828047918
C            1.93918526130480        2.22804109982430        0.08424968494462
N            2.55008067589451        3.18976773006537        0.20428894746074
C           -0.16120132874308        1.11952036474315       -0.40400593297510
N           -0.63056962516853        2.27617145873796       -0.87007230615056
C           -1.84566964311789        2.67932493097792       -1.00042503095660
N           -2.90488334715205        2.28954145768817       -0.29754196963008
C           -3.06884723235805        1.12461057796379        0.25875382078392
N           -4.05960895828346        0.99889464766741        1.14806818771942
H           -4.61667603263886        1.81277199269433        1.35129760600315
H           -4.33706215016825        0.10238709890113        1.51280041316739
C           -2.30880866033052       -0.09120712611419       -0.08720978866587
C           -3.03437402820039       -1.28428791772574        0.14677736630989
N           -3.72588064051263       -2.15633787573141        0.42636504600201
C           -0.97447976047429       -0.11925351094864       -0.41773932070162
C           -0.29140872942033       -1.38300443052405       -0.56702802100186
C           -0.96418737821969       -2.53326705311483       -1.03173043178404
N           -1.47417575891449       -3.45452199183194       -1.48413202923127
H           -2.00412365991100        3.54434901948244       -1.63314568433372
H            3.84248284341534       -2.77199494020919        0.34587627039931
