30
 energy: -61.295149130395 gnorm: 0.000800479209 xtb: 6.6.1 (8d0f1dd)
N            6.35506789625009        0.16075123765050        0.08841612882375
C            5.20944426352738        0.16589307542732        0.10980627488375
C            3.79509511897261        0.17423186137234        0.15177927718014
C            3.17466076128546        1.31000215906248        0.71228846577823
N            1.95010175587340        1.68890908593817        0.52350847035352
C            0.85923641505342        1.07767871235569        0.13275638794476
C           -0.25353829809832        1.89692481000947       -0.16291861577828
C           -0.06874386908185        3.28701989031441       -0.32039415910290
N            0.05190610770284        4.41653884548209       -0.47380445795251
C           -1.53774482383681        1.35607300227987       -0.18980722384651
C           -1.72636723649172       -0.06991039351146        0.13685992155053
C           -3.08953394348329       -0.30442113089733        0.18389336601360
C           -3.79133988126561       -1.47851672212652        0.45817048277339
N           -4.45889854862506       -2.38931816205989        0.67235445372464
C           -3.75478910945066        0.94727806705249       -0.12986340884981
N           -5.07927943900668        1.08165470601649       -0.17916171525163
H           -5.67301300351171        0.28886137750874        0.00601812737445
H           -5.49821385785722        1.96933360172473       -0.39882853621869
C           -2.78726084834343        1.93748823252570       -0.35244700925463
H           -2.98069549785338        2.96531736307664       -0.59008700246981
C           -0.61246941608075       -0.91671157139605        0.25838297464104
C           -0.82275732726788       -2.27870734603641        0.57534060143267
N           -1.01966357930700       -3.35223532490865        0.92580917496939
C            0.67784287223096       -0.39690913451755        0.10489417318498
C            1.75926109070940       -1.22134318175273       -0.28357007724192
C            1.43823844090068       -2.49215971296870       -0.83786460880718
N            1.26140704156091       -3.49137698809256       -1.36968527142381
C            3.12441150146673       -0.93475943387946       -0.35883746895582
H            3.74168921571839       -1.71278920865041       -0.79389202206977
H            3.78970615000817        2.01961630780142        1.25484587699520
