29
 energy: -51.189377854082 gnorm: 0.000730846348 xtb: 6.6.1 (8d0f1dd)
N           -5.32097715849837        0.00400763586418       -0.41758285769985
C           -4.18092257554572        0.02601228232499       -0.25431263934509
C           -2.79143564463729        0.06795141538836       -0.06529091136610
C           -2.20946517344594        1.38522215430273        0.16862442517700
N           -0.97711335013479        1.75456474670356        0.13989974825091
C            0.18816003112881        1.07141520828305        0.03377221712326
C            1.30707448827109        1.86082346731509       -0.11326981254826
C            2.59900501596196        1.31921431822720       -0.13717642095215
C            2.76524670061447       -0.12882634108869        0.05349400682403
C            4.17020406429641       -0.40297147104868        0.03828381269160
C            4.80996963390210        0.78571704915912       -0.14945731129931
C            3.85481646492992        1.85440092837677       -0.25717887261744
H            4.10301971203141        2.88859899353632       -0.40353117982787
H            5.87504700043205        0.92470339276359       -0.21012972244773
H            4.60946136671321       -1.37557360032881        0.15255933652104
C            1.67124683299570       -0.93459211950373        0.19927600423389
C            1.85161360485403       -2.31993863951216        0.38866184033105
N            2.00632324674387       -3.44789815635957        0.54314215161204
C            0.32585608856614       -0.38663440376306        0.12236452490184
C           -0.69142296005442       -1.29728136399910        0.07730911237708
C           -2.10205363458420       -1.13534463362850       -0.09415253829320
N           -2.79295443499308       -2.28447522901186       -0.27932219587838
H           -3.79075090495378       -2.26378910936941       -0.40292386648992
H           -2.31976951679031       -3.16978819396631       -0.29786605270728
H           -0.39196532644664       -2.33998887177880        0.12381626205218
H            1.16569326257335        2.92755291943229       -0.19036635850612
N           -3.10154056255012        2.37538446111073        0.44366289699590
H           -4.08535670034754        2.24180091715284        0.28739378806193
H           -2.73715636333231        3.31124664781778        0.48373261422509
