22
 energy: -44.336621822730 gnorm: 0.000719696115 xtb: 6.6.1 (8d0f1dd)
N            4.20798209089040        2.14167694940377        1.32838346987440
C            3.60856564449707        1.29908124258422        0.82887354019257
C            2.90658369046978        0.25096855358571        0.23168112304774
C            1.53393666581682        0.13360857223730        0.02519308491520
C            1.36239757301503       -1.21402328360727       -0.59114292358209
N            2.57102510568664       -1.75379898232740       -0.83902582667457
C            3.47113330135087       -0.90723392431534       -0.38428849314184
H            4.52158843537984       -1.11355172466341       -0.48862358807727
C            0.12459403648202       -1.79715447712945       -0.51711260266034
C           -0.94020479638470       -1.04996929879548        0.03134066754551
N           -2.05372122314276       -1.61950891358321        0.37846302644894
C           -3.16004377088645       -1.10101873325513        0.86016548780289
N           -3.70587122737686        0.04069927585396        0.54332018197674
C           -3.01521598898757        1.01227735779476       -0.08879296653025
N           -3.76448105784662        1.92044878612137       -0.72697105887954
H           -3.32020634062227        2.73209800501479       -1.11921884506641
H           -4.76566404721286        1.85112858839681       -0.67849294409652
N           -1.71345937677919        1.25227912643165       -0.08374098268487
C           -0.71113164257793        0.44006419626956        0.18752491204321
N            0.49982337873546        0.89071797724974        0.31838734121529
H           -3.76740896881582       -1.77391274611681        1.45556835861919
H           -0.01235485279071       -2.85580272075251       -0.67708345618823
