27
 energy: -52.533629477932 gnorm: 0.000226065378 xtb: 6.6.1 (8d0f1dd)
N           -5.59576349534632       -1.66001912394394       -0.21295405062984
C           -4.50871122299849       -1.31326047562386       -0.08149214474043
C           -3.18327792348262       -0.86177732868979        0.08101379886484
C           -2.24716932909451       -1.81801633257172        0.57961142274030
N           -0.96873254006549       -1.80439463237508        0.55989654857412
C           -0.08332446153608       -0.84548915368978        0.25783726722027
N            1.13232386863764       -1.27875917381683        0.04901703082312
C            2.13300189588176       -0.41032805969326       -0.06364069490600
C            1.95898757142422        1.04271413964882        0.15477887311414
C            3.25031867019696        1.64510819589030        0.08848859570891
C            4.15158703027921        0.65884123989146       -0.17286590163147
C            3.48419757167592       -0.62475721848978       -0.26751394396310
C            4.13136187349592       -1.83548680676022       -0.51665417361313
N            4.69603139569212       -2.81322392182239       -0.73032662331899
H            5.21348119555507        0.77854160128487       -0.29215998230119
H            3.44913339772229        2.69292460877193        0.21123404779253
C            0.69386108411622        1.52255009820470        0.34799500440047
C            0.45650309056999        2.89802837027040        0.56455437927426
N            0.25784352063176        4.01476219230875        0.73734340852645
C           -0.42069060106650        0.60133910878292        0.25972418728601
C           -1.66085536829888        1.12404803010185        0.02537451864326
C           -2.91549792443038        0.48045703562315       -0.20538489162706
N           -3.90922610115443        1.26773417878666       -0.66173996015052
H           -3.76118336328155        2.24990123836478       -0.81468249883393
H           -4.82922202440795        0.88695213868235       -0.81104673830621
H           -1.70733637633315        2.20616146294032       -0.06750625056638
H           -2.68039577388222       -2.73527682167698        0.96978617321865
