26
 energy: -52.822821892886 gnorm: 0.000683711060 xtb: 6.6.1 (8d0f1dd)
N            5.85238232435499        0.83381265584550        0.00092483147308
C            4.72329006408241        0.63635418856492       -0.00084092516687
C            3.32770673898746        0.39879819458691       -0.00013261607915
C            2.49613605472530        1.53935573669681       -0.00071990522629
N            1.20305816948939        1.63603951347398       -0.00051435865461
C            0.23382781029301        0.72640789127949       -0.00015201931313
C           -1.04593796013546        1.30922955458121        0.00004572429895
C           -1.16929046886017        2.71790186520613       -0.00019400939158
N           -1.30274073900114        3.85569760990108        0.00058296413674
C           -2.18755938975218        0.50803312867836        0.00003920669144
C           -2.04124189616631       -0.96400770018116       -0.00029700340005
N           -3.25490758044769       -1.49724463594281       -0.00040308525545
C           -4.07911620843686       -0.41958703751959       -0.00012805251339
N           -5.39747182949582       -0.54044357980880       -0.00007805078187
H           -5.96443948913165        0.29004559939777        0.00016008658391
H           -5.80898353470417       -1.45773650921589       -0.00024673076751
N           -3.47537447504287        0.80089220473136        0.00010947217832
C           -0.78486728098709       -1.54613240028576       -0.00039446925515
C            0.36057826938884       -0.75717340320240       -0.00020540510983
C            1.61263063695748       -1.42733006166217        0.00013165775554
C            1.58417641828926       -2.85017067200742        0.00023741950357
N            1.63433058502036       -3.99521814485759        0.00072929341505
C            2.91336696034839       -0.93035313637933        0.00028739463233
H            3.70101131813760       -1.67674121189301        0.00059135635525
H           -0.70676267459504       -2.62310468727522       -0.00056938120807
H            2.99893222338201        2.50297691528760       -0.00135923540123
