24
 energy: -43.781020342617 gnorm: 0.000462449303 xtb: 6.6.1 (8d0f1dd)
N           -4.12575816010815       -2.59250650921730       -0.00961681146584
C           -3.58292211057126       -1.57940540934278       -0.00612004748298
C           -2.94326657633616       -0.34103582927548       -0.00201149946226
C           -1.57095647466944       -0.06588358722922       -0.00135552550598
C           -1.49028646251253        1.41583299296434        0.00314346971281
N           -2.72425375763825        1.95710723441457        0.00534649827182
C           -3.56757200001115        0.93392254105515        0.00228605625865
H           -4.62980344149928        1.10895064865484        0.00329810223486
C           -0.25392800402755        2.00083648213336        0.00363015637373
C            0.89424684338197        1.17806044350826        0.00029649731001
C            2.13481438702117        1.80348403529188       -0.00192354161165
C            3.42585400454414        1.26480566252087       -0.00594712154570
N            3.86014082980902        0.03503118735178       -0.00516133299257
C            3.12483593588796       -1.08086938959781       -0.00086302752632
N            3.87371718485293       -2.20626074483795        0.00357718086867
H            4.87376694771369       -2.11007805243899        0.00042762004061
H            3.45532032253906       -3.11822422105459        0.00453066807650
C            1.72766007773889       -1.22619401509205       -0.00106009683948
C            0.69796817127019       -0.28812392625044       -0.00167858547379
N           -0.51223768539716       -0.84810326287112       -0.00310241287832
H            1.36047125079585       -2.24604120983463       -0.00076628192969
H            4.23732733079712        1.98764609390390       -0.00994527517451
H            2.09994894372434        2.88734407779681       -0.00118925599955
H           -0.14600252960548        3.07605521144661        0.00592262844100
