29
 energy: -51.203594368027 gnorm: 0.000599492373 xtb: 6.6.1 (8d0f1dd)
N           -4.45108573480362       -2.53218860922829        0.00940277382085
C           -3.73442871639423       -1.63010403828623        0.00570411075895
C           -2.90283109465984       -0.51772314721049        0.00245465854821
C           -3.36025782184027        0.84600433043552        0.00253795094597
N           -4.65450922701718        1.19933814099831        0.00494486085886
H           -5.36944554355891        0.49233677583988        0.00825913819582
H           -4.92046280421444        2.16772663618782        0.00555035591996
C           -2.25366093853596        1.70675807058602       -0.00020727833682
C           -1.10573507168301        0.92554127194278       -0.00154194958806
C           -1.50640077868521       -0.48769323723475       -0.00023246820025
C           -0.54637959847106       -1.48073571428741       -0.00124226919911
C            0.81735692956221       -1.18308007127225       -0.00206240709443
C            1.70651902819596       -2.27062133818772        0.00044329283535
C            3.08976101186409       -2.32225599335484        0.00341051712000
N            4.00865114409993       -1.37781627068726        0.00058183728337
C            3.78779808436834       -0.07139212784168       -0.00608812058065
N            4.92419089295979        0.66670987323490       -0.02112029722201
H            4.90500275033162        1.66898413124321        0.00752582445569
H            5.80205160939089        0.17964744845734        0.00105403637291
C            2.56730711392654        0.64475638117946       -0.00475970924684
C            1.24886372093356        0.22428322804125       -0.00321912824448
C            0.25234518688419        1.23951453075985       -0.00293159119083
C            0.61575117402498        2.59855086926900       -0.00403241916177
N            0.88663034200007        3.71611657785382       -0.00397904152727
H            2.70042533026266        1.72204125943332       -0.00599596057003
H            3.53024995540816       -3.31518989632069        0.00912679704358
H            1.22128412522278       -3.23976249643649        0.00215487569604
H           -0.85796986153062       -2.51583951781895       -0.00057984140212
H           -2.29368578624145        2.77930593520451       -0.00077087219088
