25
 energy: -48.284911016589 gnorm: 0.000838465389 xtb: 6.6.1 (8d0f1dd)
N            5.74448992928036        0.81054432991992       -0.09123034713075
C            4.60377653812598        0.68659105431277       -0.08555626855526
C            3.20072932252021        0.53394867700075       -0.10726926250175
C            2.43753409824609        1.70801030186985       -0.30977765676009
N            1.17682393727579        1.88930697747640       -0.09927591239828
C            0.15214807701319        1.06696240623519       -0.01314591547243
N           -0.99645288795953        1.60601995703225        0.35440631598257
C           -2.11293891041418        0.90520059326560        0.32601938447107
C           -2.08802621979353       -0.50935860075634       -0.18684511857519
N           -0.92355818723017       -1.08103144297435       -0.39166039465403
C            0.19162793172096       -0.40912665796722       -0.24924512220477
C            1.36724345463749       -1.15904268018553        0.05209031679301
C            1.13134591541905       -2.51925864669486        0.37476902970394
N            0.96652140452418       -3.62457314496374        0.63043496938711
C            2.68684888063379       -0.73808755523094        0.14342254527918
H            3.40737879483532       -1.50585792315761        0.40495393031269
C           -3.38860518939559       -0.90158982572001       -0.39513280980798
C           -4.22064834564588        0.16087065388640        0.04108711014828
N           -5.55953375451698        0.14479408735581        0.01659225937237
H           -6.05303852919781       -0.67230663225090       -0.29702619714773
H           -6.08427088290448        0.93922658034876        0.33730240757337
C           -3.43143062642218        1.27140677600789        0.44589558228022
H           -3.80668817872197        2.22464305639735        0.76123312062096
H           -3.72037747171305       -1.83324256240196       -0.80860421024104
H            2.98348112018036        2.61522425839477       -0.55220196997599
