26
 energy: -52.814532184271 gnorm: 0.000730563763 xtb: 6.6.1 (8d0f1dd)
N           -6.32148114383351       -0.74726831278877       -0.00086645151914
C           -5.18246489100603       -0.61298335481155        0.00194104815442
C           -3.77821000271824       -0.46045140366381        0.00042437663469
C           -3.00706077970321       -1.65967002424055       -0.00368389413102
N           -1.72810298873025       -1.82621374901880       -0.00240993768111
C           -0.73705431529319       -0.91617293801607        0.00048612893070
C            0.53134732600330       -1.46705318119467        0.00192405932944
C            1.66264062999872       -0.65719568678246        0.00147516619946
C            1.52437323743491        0.81017966251252       -0.00094523040745
N            2.71376754105854        1.41714096948151       -0.00150191253900
C            3.62973217938795        0.44227647712414        0.00014774259162
N            4.93164121497917        0.69721474340649        0.00008530823133
H            5.60435297853667       -0.05147336088363        0.00120325463857
H            5.23626588021054        1.65682307100946       -0.00113481409626
C            3.03117215476736       -0.88310475492812        0.00198148543816
C            3.75079335045130       -2.07284238503111        0.00352105737556
N            4.39058613626708       -3.02862535915865        0.00459880554828
C            0.26061021834405        1.38346076834720       -0.00173958045446
C            0.11700446718069        2.79075824093389       -0.00232515184359
N            0.02116403219020        3.93216500564771       -0.00519472473290
C           -0.90032063199893        0.57178568351066        0.00006452070264
N           -2.02588133119861        1.25988504661014        0.00257092868604
C           -3.27112989588138        0.83874651679430        0.00451146667537
H           -3.99119148625114        1.65257886948430        0.00885590791533
H            0.62065478933166       -2.54290551330345        0.00277971207861
H           -3.57175950552768       -2.58853198834071       -0.00733813322530
