24
 energy: -48.575758206550 gnorm: 0.000896781571 xtb: 6.6.1 (8d0f1dd)
N           -4.88088059309625       -1.76358668450584       -1.06981333702808
C           -4.14964364773251       -0.98325260684758       -0.65036082556722
C           -3.24356218993297       -0.05582378778383       -0.13246471422781
C           -1.82817171503422       -0.13634840034211       -0.18328987420511
C           -1.37913404512324        1.11964377658528        0.49136124627071
N           -2.41767273278891        1.81028811074549        0.91691995092216
C           -3.51945593048803        1.15592349110144        0.50454411130837
H           -4.49078224630442        1.57598829938754        0.69542298807374
N           -0.10353262291828        1.39424455603260        0.61789889610598
C            0.81138479586123        0.53010117252649        0.26057392775953
C            2.09420682128702        1.01257810340707       -0.10484706247669
C            2.22345864696475        2.41613349920195       -0.24346938320532
N            2.38295954765861        3.54526920376879       -0.35765728100274
C            3.20314766583866        0.25204104147534       -0.51076683496326
N            3.45004213020671       -1.01593043409924       -0.33560514362661
C            2.58209769017225       -1.92165918811078        0.12368702813489
N            3.10215425852824       -3.04196610238842        0.64067778458932
H            2.49995124253061       -3.81936074702616        0.84851871146996
H            4.10036178315201       -3.15988009620220        0.63704999237286
N            1.27429415148323       -1.89316778467446       -0.07934922989809
C            0.45329117375213       -0.88024120748043       -0.07069022124335
C           -0.90689383912876       -1.12589248652859       -0.37878039798631
H           -1.19172839852783       -2.13962739572448       -0.62092289443747
H            4.01307002954048        0.79264003708198       -0.99094136514055
