26
 energy: -52.820065196748 gnorm: 0.000918543125 xtb: 6.6.1 (8d0f1dd)
N            6.37112060985305        0.31880615984196        0.16224849626838
C            5.23754902792373        0.15767908545633        0.10030995628297
C            3.84293807164442       -0.04157772683306        0.02116998828282
C            3.05848051246297        0.86197691072324       -0.73660115327688
N            1.78447783208030        1.05371055576508       -0.61024495984940
C            0.80518496031847        0.32445845446784       -0.13063346020170
C            0.99159447554766       -1.17169903706489       -0.06448406879609
N            2.09573503817432       -1.65169934599192        0.41848624306560
C            3.26472157583494       -1.12662796416110        0.68638824623351
H            3.86365501853558       -1.69963778235662        1.38607471830897
C           -0.09781851585779       -2.00562634280859       -0.36301981490524
C           -1.35623899755991       -1.46128112728813       -0.28950685187804
N           -2.53421271753484       -2.09855066054917       -0.40265313777808
C           -3.47592926668291       -1.19656045992125       -0.13892256481626
N           -4.77187749350276       -1.48432562443450       -0.15236794773418
H           -5.45520334673431       -0.77272319617354        0.04719359780795
H           -5.06209788645821       -2.42186855259766       -0.37410583770990
C           -2.92529423857908        0.12160129153646        0.16457702870557
C           -3.71190054261915        1.23012546795124        0.46343733398963
N           -4.43932996029152        2.08713343373882        0.70530592627530
C           -1.55732152413008       -0.03400881664603        0.06493138822314
C           -0.46445156809568        0.84907653883337        0.11496464610600
C           -0.64746821233739        2.23277041159669        0.31101681724758
N           -0.79063279304920        3.35732808495063        0.48474588830724
H            0.04753758554014       -3.06209292374760       -0.51636570367609
H            3.55929573881858        1.55818646031242       -1.40064210618249
