26
 energy: -53.595541195270 gnorm: 0.000750050406 xtb: 6.6.1 (8d0f1dd)
N           -5.96003642843600       -0.27747302976502       -0.19722733132929
C           -4.81747727490646       -0.19372164526307       -0.17615891609718
C           -3.40513517981679       -0.09709206406614       -0.16837207377630
C           -2.84864318709718        1.11657310179473       -0.58058615354411
N           -1.63597493496550        1.53999640922536       -0.33015736999605
C           -0.52007188979881        0.93207383477703       -0.07639987973158
C            0.61329246177231        1.76839839160328        0.22578850105923
C            0.41407793642749        3.16034556044794        0.38823797311499
N            0.27669573650046        4.28633305417979        0.54504470005373
C            1.86685850520870        1.21312770540705        0.22083571976180
C            1.99387389839307       -0.22358288658118       -0.12061274439909
N            0.93859224591929       -1.02473314149088       -0.19886964196890
C           -0.26444982917692       -0.53031740613008       -0.11588147043806
C           -1.32549077318837       -1.44072945583007        0.20295676917156
C           -0.88310820841206       -2.72665114113289        0.61915321465792
N           -0.56824060724853       -3.77305867123066        0.96008582243120
C           -2.68818481892728       -1.22974426353696        0.26503763121828
H           -3.28523171830658       -2.06434815398738        0.61491842626787
C            3.34333674582560       -0.48263551978919       -0.27971837307752
C            3.93932597155394       -1.68752463028329       -0.66060343514841
N            4.45337855690493       -2.66474310122009       -0.97592345924162
C            4.05834552159320        0.74064124916854        0.00913057786202
C            3.18291287361007        1.74460556446259        0.30824047023088
H            3.42209518496128        2.75796361418152        0.56869138897596
H            5.13014621456406        0.81687025019748       -0.02307831558297
H           -3.49690067265364        1.86448603486351       -1.02323956846933
