24
 energy: -44.562857892896 gnorm: 0.000433803121 xtb: 6.6.1 (8d0f1dd)
N            5.94859426830227        0.65055362585040       -0.00002443515228
C            4.82013461900725        0.44496836101278        0.00130543590942
C            3.42799320012036        0.20732622965055        0.00038838290201
C            2.58221290675450        1.38277175374786        0.00145197020514
N            1.30832076772695        1.47395657042915        0.00112241601047
C            0.36448224865377        0.49667820974850        0.00015266938875
C           -0.93068089186922        0.95868081295762        0.00001678276942
C           -2.01452337201110        0.07265562891051       -0.00041232670821
C           -1.77271790772942       -1.37118815395675       -0.00055287418298
C           -3.05721202682185       -2.01928339831105       -0.00087774833921
C           -4.01261238050567       -1.05727332014043       -0.00085462042802
C           -3.38685016809192        0.25480508433375       -0.00050559542151
C           -4.07425327273433        1.46774726565203       -0.00011944608235
N           -4.64407303993057        2.46650198759853       -0.00032884047045
H           -5.07785397793454       -1.20208194331804       -0.00098493961172
H           -3.20709150373113       -3.08167898243756       -0.00102958019516
C           -0.50451909295914       -1.85488175428595       -0.00036324366095
C            0.62069004305267       -0.97231744583355       -0.00026921545816
N            1.76468707499290       -1.60409116958243       -0.00076783349327
C            3.00140440333973       -1.10248329732402       -0.00085522271367
H            3.76206768929811       -1.87865230723120       -0.00171806262108
H           -0.28925630388247       -2.91325070368584       -0.00048745130290
H           -1.09530650497320        2.02560927847453        0.00032501862796
H            3.10624413282607        2.33439304524065        0.00259563722877
