23
 energy: -44.846785337108 gnorm: 0.000892824265 xtb: 6.6.1 (8d0f1dd)
N           -4.38204325326094       -1.39513541655189       -0.53794017701070
C           -3.57909044274264       -0.59997377956316       -0.33306301809063
C           -2.62957686085166        0.39142986106194       -0.08147006794564
C           -2.91592869216513        1.77360679005268        0.21362455111062
N           -1.84830547209669        2.50117911433622        0.40910152623084
C           -0.78216575680061        1.66368094533366        0.25962255227524
C           -1.24668405719786        0.29925003172205       -0.05183358140956
C           -0.31034662686742       -0.74215347826143       -0.16820762044145
C           -0.74420791743560       -2.07539831501099       -0.33456037787728
N           -1.07669958356138       -3.16418102228035       -0.47185147780721
C            1.05405431671787       -0.45801203329302       -0.06458216797449
C            1.96797193620259       -1.47205009493944        0.27959618002216
C            3.33795173681823       -1.34602392358713        0.47031440998330
N            4.14993294421212       -0.43412665500939       -0.03575628314509
C            3.77999753024641        0.68498938787235       -0.59474099123761
N            2.68452047527249        1.37225099078394       -0.34180301086594
C            1.49650457373442        0.96284385119342       -0.00697664700763
C            0.54418760386451        1.96912302458096        0.30877014241845
H            0.88699956813635        2.98062632593442        0.45599542173468
H            4.52569554251999        1.19880214048432       -1.19151205923032
H            3.85148881383295       -2.13939545248044        1.00193009377214
H            1.52912755751887       -2.43017686881581        0.53631094658691
H           -3.90031654369732        2.20281473593947        0.27669669020747
