33
 energy: -63.688369297760 gnorm: 0.000365112154 xtb: 6.6.1 (8d0f1dd)
N            6.02442466442042        0.84580504726604       -0.32306208964330
C            4.90741001237849        0.59481390250199       -0.20614872336758
C            3.54227371462532        0.29450883248249       -0.06104246741720
C            2.67183903447827        1.40128816532660        0.20536796134963
N            1.36519539066017        1.43979514970213        0.15806346861623
C            0.42453081510821        0.51630748253154        0.05672551706663
C            0.62311840213718       -0.94416696595890        0.11536933303163
C            1.85263494052465       -1.56249403417856        0.00505075440508
C            3.16114159023618       -1.05265363634552       -0.15674816625961
N            4.12684608081814       -1.97146314413578       -0.39148578763215
H            5.08606208831838       -1.68818467204250       -0.49550488847802
H            3.90007134023394       -2.94831354542105       -0.44048101349953
H            1.81300193870487       -2.64768587880433       -0.00856851014690
C           -0.52811422633736       -1.77885615176930        0.21162157920502
C           -0.38215139231779       -3.17121181720840        0.35200859629115
N           -0.27311940330664       -4.30988715383300        0.46609269903085
C           -1.81366954645083       -1.25292839913791        0.13249364015098
C           -1.99665206708789        0.19683120420363       -0.04828201407701
C           -3.35999219423851        0.43533791113786       -0.12221731918906
C           -4.05267087480941        1.63083835570252       -0.28895729544951
N           -4.71422689070031        2.56274445614431       -0.42497160357009
C           -4.02713687242572       -0.84580992341102        0.01148810436226
N           -5.35665997166627       -0.98422912581524       -0.01594370144565
H           -5.94150182603502       -0.17298445786954       -0.13072439956247
H           -5.78093854436490       -1.89004965082881        0.08089565564803
C           -3.06904191353525       -1.85192225691771        0.16589748539398
H           -3.26809319766230       -2.89935057344879        0.28540550566827
C           -0.87803493370315        1.03440608767107       -0.07075363733646
C           -1.02233621019030        2.43474487108032       -0.17423375804078
N           -1.12953156021863        3.57347807106300       -0.26050879444171
N            3.23827048942845        2.59137974556309        0.49834441978905
H            2.62305877428447        3.38257605607666        0.58435575702443
H            4.23267848159319        2.72901103597290        0.44884985652401
