23
 energy: -44.052437916061 gnorm: 0.000562960619 xtb: 6.6.1 (8d0f1dd)
N           -0.63836326324584       -3.82305951620583        0.18954803512752
C           -0.86446631150124       -2.70152034061905        0.11791336971791
C           -1.21269851151473       -1.33208121448572        0.03163129136528
C           -2.52791739753349       -1.01442538891955        0.39558006066300
N           -3.18588115485913        0.10648553391998        0.25807084059566
C           -2.65288699068000        1.27604530972482       -0.09865220476939
N           -3.50387922101417        2.19419617376338       -0.58491717746959
H           -4.48397985987213        1.97467357014736       -0.61325281042192
H           -3.19371124309782        3.14252661836606       -0.70188502442121
N           -1.41980542411339        1.67864708133403        0.16697517810889
C           -0.30399459506123        1.00130502651520        0.15229056278284
C            0.88181648965330        1.66943195404312        0.53506760732819
C            2.09605485636201        1.06868363672121        0.33942422986182
C            2.11139401968850       -0.22633451546819       -0.42216767822343
N            3.32308290113873       -0.48681297795642       -0.84487214822180
C            4.12721692401930        0.48806638506595       -0.33832415950524
C            3.44431043747624        1.47267678766964        0.34376359138229
H            3.85471037928762        2.34073202134156        0.82043805263349
H            5.18567273801263        0.43055712791547       -0.51984536014224
N            1.00493579158768       -0.91136850732288       -0.60768344753085
C           -0.15483721976669       -0.42798889012131       -0.25679116397996
H            0.79407156190661        2.70501553779241        0.83167627948936
H           -3.12947854657227       -1.82429111592149        0.79729685272926
