26
 energy: -52.031074794480 gnorm: 0.000675616645 xtb: 6.6.1 (8d0f1dd)
N           -1.39711805265962       -4.07317384507712       -0.25936361517194
C           -1.49417359447161       -2.93336019321872       -0.18377344549948
C           -1.70236820958611       -1.53548791120479       -0.09624276577087
C           -2.98457417806068       -1.08510706790340       -0.49808014966325
N           -3.55731289697880        0.05931595896749       -0.31363816664458
C           -2.95710463838645        1.14499282095447        0.22372556851602
N           -3.78591836551350        2.03921674047318        0.78732362792104
H           -3.42501291600464        2.94541916496631        1.03086436175302
H           -4.77716175677363        1.89854975542224        0.69940952410895
N           -1.69948258407807        1.48254190875140        0.09723066190480
C           -0.62320516566042        0.72685091656685       -0.02251495290338
C            0.58922392506663        1.34893607371138       -0.35854446527764
C            0.61198823387719        2.71666980722454       -0.69473238699990
N            0.66334890120935        3.82626333465074       -0.98428409177710
C            1.78253631954691        0.62156774715145       -0.23506691988219
C            1.69007267050488       -0.76541208564110        0.32693678462740
N            2.89425431893806       -1.25036931355020        0.58401688941834
C            3.76276500229953       -0.29156697438835        0.18991844697704
N            5.07377373564161       -0.49219914887268        0.30096902218029
H            5.39279120793380       -1.37512608810905        0.66295984625714
H            5.73467232032720        0.20420159649753        0.00511345386684
C            3.12322137209893        0.89129509091237       -0.29853005408957
H            3.61360545083496        1.78551730919876       -0.62748519637191
N            0.54586511683837       -1.38187953867103        0.48305716838623
C           -0.58160199963858       -0.74352345149736        0.20547188492114
H           -3.61334666390504       -1.81997091011435       -0.99380063798650
