23
 energy: -44.836282523935 gnorm: 0.000976825807 xtb: 6.6.1 (8d0f1dd)
N           -5.41862517927205       -0.68525163211139       -0.08817553212672
C           -4.27739861667457       -0.59585497045301       -0.02572271542317
C           -2.87051564564377       -0.49062288271429        0.07300038112274
C           -2.16688040808366       -1.68466893635943        0.34797938101861
N           -0.90741177430113       -1.91268388619944        0.15361963591631
C            0.13997483546646       -1.13122490532036        0.04167298058441
C            1.36096013383319       -1.74490865418351       -0.30083275561681
C            2.52723550082990       -1.02201003593707       -0.27045806534677
C            2.45633779638622        0.36142533117957        0.30479959600788
N            3.66161374733515        0.79059271012164        0.59814827199713
C            4.52444376344846       -0.16786453439603        0.18285409067587
C            3.90087840975047       -1.30291738575917       -0.30848059512190
H            4.36987841269117       -2.19250675764058       -0.67872594271767
H            5.58107504353054        0.00628260805385        0.28003596899853
N            1.30244048602384        0.96337888726949        0.47996849181123
C            0.17359884759927        0.34354568138261        0.26599505172295
C           -0.97395497708766        1.14166286949478        0.00187704708392
C           -0.70475159950344        2.51877804540242       -0.22052577916733
N           -0.53394943317481        3.63645496813432       -0.40193289729374
C           -2.30240902187805        0.76318659960923       -0.15577452650185
H           -2.98897135057729        1.55754305460075       -0.42762746100840
H            1.35397460278399       -2.81325297530045       -0.46375709716524
H           -2.74849800618667       -2.56120701907149        0.61458356475021
