25
 energy: -52.312427096954 gnorm: 0.000546526909 xtb: 6.6.1 (8d0f1dd)
N           -5.73039775881520       -0.24478106596429        0.61015291640789
C           -4.58607328100545       -0.21336940432769        0.51501078229564
C           -3.18841569927270       -0.12292944764455        0.39147216325904
C           -2.37952977755273       -1.19622929221542        0.76724042876984
N           -1.14923483018772       -1.39972523420901        0.38078723317306
C           -0.18394774720327       -0.59118713717306        0.06529168885864
C           -0.28805506488082        0.89105672132034        0.33692163290134
N           -1.40273125492954        1.48954718958348        0.01976175142302
C           -2.62844773413474        1.05866658084981       -0.19641041931019
N           -3.41294497103867        1.86602855660234       -0.92958503884040
H           -3.03905550112220        2.74743863372333       -1.23811088536878
H           -4.39677830453643        1.67811183243749       -1.02305996042848
N            0.75561324657001        1.60131885492772        0.70998191531194
C            1.94018409219920        1.08827643668440        0.45821798113130
N            3.13183502681108        1.57625486703495        0.73075379173693
C            3.98649670749177        0.69793321869480        0.13996667348902
N            5.29728701615533        0.87547679168090        0.18094933968703
H            5.89810319294586        0.20038764577231       -0.25972203342963
H            5.66861768711250        1.67449195551932        0.66500039581413
N            3.43299395353114       -0.38341664450579       -0.46266988998048
C            2.13236627863703       -0.20612238329782       -0.29437853908709
C            1.04522747439548       -1.05440227390838       -0.46126304583113
C            1.17096637459648       -2.36335868472684       -0.96881377174032
N            1.25915769278081       -3.42040330564419       -1.40408418328000
H           -2.82916853893067       -2.03010468078842        1.29461648663212
