29
 energy: -61.560535849332 gnorm: 0.000384698095 xtb: 6.6.1 (8d0f1dd)
N           -5.84973360347193       -0.25527433952925        0.89128973732316
C           -4.72458707994628       -0.30176252664222        0.67494972470772
C           -3.33451475532163       -0.33203659885315        0.41584208496918
C           -2.64965617582086       -1.47714970329339        0.78559025109768
N           -1.46299298844358       -1.85511883484975        0.37102886492966
C           -0.41820809175318       -1.18705261067187        0.00740003973050
C            0.72365335612543       -1.96984215299585       -0.39685770881376
C            0.53458675954492       -3.33449477854009       -0.70965183290216
N            0.36039628801796       -4.43049336615698       -0.99175022372943
C            1.96654522791296       -1.39968712222082       -0.31546161322295
N            3.18323532098394       -1.98797448255762       -0.50214770241588
C            4.07352078511977       -1.08576115514403       -0.19525995385357
C            3.49900104416938        0.17699501039973        0.21837644654446
C            4.22474880402210        1.30384073465909        0.60879745886026
N            4.85444132434653        2.20811870820986        0.93101793899523
C            2.13051160656323       -0.00593758439611        0.12746547449481
C            0.99864177772067        0.82181705231968        0.27501208070040
C            1.17498546603300        2.17780719648660        0.63238861258736
N            1.32798165792305        3.25201283512934        1.00187487753281
C           -0.27210599658379        0.27909104407021        0.09949774989049
C           -1.38518708896629        1.09989019859253       -0.24678457639194
C           -1.05911044309084        2.35079075884533       -0.82923456854993
N           -0.87836563617458        3.33867413646991       -1.38471237673951
C           -2.76793801609902        0.81873589932829       -0.22546372947340
N           -3.62467093812205        1.71906058328238       -0.74243621208789
H           -3.28742923696142        2.58940948608462       -1.12131270291237
H           -4.61815507772390        1.57740639317708       -0.66019479935080
H            5.12570361315892       -1.29793566230895       -0.25868814089019
H           -3.17602002584484       -2.23144954794574        1.35980356222855
