25
 energy: -48.288588543971 gnorm: 0.000664196770 xtb: 6.6.1 (8d0f1dd)
N           -5.94432809759278       -0.18219848161467       -0.07915545989175
C           -4.79743106146584       -0.20631703604823       -0.07636903467423
C           -3.38784428925414       -0.24224542561193       -0.08179224055460
C           -2.67658256843261        0.72942639780997       -0.81368035239488
N           -1.44549370386245        1.08049165025454       -0.57701974015598
C           -0.42387793141807        0.46470572850035       -0.07165659066871
C           -0.42815112638737       -1.06100882676451       -0.00446435741432
N           -1.48761244954143       -1.61142043440728        0.51418284944752
C           -2.71788038175887       -1.21030030498736        0.68176820389289
H           -3.27968023812783       -1.78283739702963        1.41256254846171
N            0.64780663800401       -1.75801002212947       -0.28180011720758
C            1.81122883621533       -1.12089872940511       -0.22405070047600
C            3.08136145773879       -1.60173159186627       -0.42105294876950
C            3.99158728797404       -0.56592772670250       -0.07032781202574
N            5.32164222123055       -0.66822552562204       -0.11811870083112
H            5.90273250814746        0.10607935912048        0.15363402682772
H            5.75725713737180       -1.52276781990111       -0.41956032671247
C            3.27806699896234        0.59734585395633        0.32366861402039
C            1.93782178372551        0.31186895832294        0.22826324163157
C            0.78021559064424        1.09694445537011        0.28675153323532
C            0.83318245750977        2.47784855098447        0.55457096181366
N            0.89087936973388        3.59889351081642        0.79400617402083
H            3.71839118549176        1.53522601794802        0.60339113523934
H            3.34945020911672       -2.58847043820627       -0.74102246671704
H           -3.20500589902096        1.36130608091358       -1.51765990539673
