32
 energy: -64.744943161530 gnorm: 0.000550513975 xtb: 6.6.1 (8d0f1dd)
N            6.13673613310172        0.57799650864589        0.52095608044362
C            4.99304625408667        0.54130395328274        0.42927234061929
C            3.58691571036710        0.47703126092150        0.32252296449888
C            2.87599084822806        1.59225446940386        0.78254734959252
N            1.64788014409728        1.92218517462528        0.52109389313032
C            0.60627586600401        1.22063518752942        0.14372676396496
C           -0.55419826002235        1.94257801219944       -0.20571663303953
C           -0.46916343410771        3.33451418458548       -0.41476871345433
N           -0.43174546290224        4.46272879823511       -0.61723757410637
C           -1.79896256314934        1.31016126317146       -0.22515572877644
C           -1.89148486398237       -0.11007119076739        0.16693101316752
C           -3.23825242489319       -0.43835873869765        0.21304339397603
C           -3.85742162055111       -1.64559573828233        0.53396114576195
N           -4.46068084861949       -2.59231349855306        0.78314801624492
C           -3.98117020841462        0.74400046715090       -0.16370976236160
N           -5.31116823438501        0.78882592221386       -0.23142877898382
H           -5.85246837844002       -0.03232083623682       -0.01260534489451
H           -5.78484165316396        1.63663888568855       -0.49280350334827
C           -3.08091471740207        1.79285766920048       -0.42503082451788
H           -3.34585385432415        2.79213411443204       -0.71068266414422
C           -0.72543416471437       -0.86496158740303        0.34343864449204
C           -0.83045377264294       -2.21689217392155        0.73788074585758
N           -0.93170133372642       -3.28072126963363        1.15470515350906
C            0.53343825694693       -0.26139554729648        0.16923422399261
C            1.65053703385294       -1.03854238196524       -0.18838297463589
C            1.37010226976789       -2.33124217202279       -0.70158157243548
N            1.23777957348305       -3.34657294575161       -1.22093170519896
C            3.03254546571638       -0.69604234505864       -0.24900918584323
N            3.88474171775434       -1.58378372721785       -0.79920376480539
H            3.55697575984199       -2.47624100113924       -1.13057890501777
H            4.87524593495420       -1.40483093501801       -0.77812205214208
H            3.43509243446397        2.35262843168710        1.31787760535052
