26
 energy: -52.812740331246 gnorm: 0.000970859227 xtb: 6.6.1 (8d0f1dd)
N           -6.09439045669320       -0.45753409909428       -0.27613462992138
C           -4.94704656124226       -0.41142173789971       -0.27346508802565
C           -3.54274812406451       -0.32776578129636       -0.23574992502438
C           -2.77485802032451       -1.33866882591681       -0.85037725670810
N           -1.51528536308612       -1.59976213498734       -0.70395236227110
C           -0.52047591369418       -0.87318961043634       -0.21139278536022
N            0.61857067950635       -1.44560211886497        0.06601428890901
C            1.71314220657840       -0.69286673676170        0.09044770919118
C            3.01840156593356       -1.01170128776698        0.43561768325050
C            3.48566318089892       -2.21922682832365        0.96169257117114
N            3.89564522842645       -3.19732358674956        1.40235145325584
C            3.84739789936967        0.13224718594727        0.16212440639020
C            3.08306552568358        1.17035662320361       -0.31085787182531
C            3.50493177034139        2.44694449169368       -0.69177146882179
N            3.82061422252072        3.50693005826381       -1.00254452863010
C            1.70853940231519        0.72171398977202       -0.34788430013601
C            0.53139535987301        1.37392792991180       -0.50831606601906
C           -0.65687852339604        0.62350345497517       -0.23430370770593
N           -1.74364349405687        1.25380548831739        0.05571397248197
C           -2.96001754057088        0.81489683812625        0.37249468311297
N           -3.69175022177158        1.62293683055641        1.15530688993674
H           -3.29843727142845        2.49553926371491        1.46388116391502
H           -4.66689394330620        1.43303234980079        1.31436392761412
H            0.46046008800592        2.43999302487731       -0.67102748437866
H            4.91159954610341        0.15196149069093        0.31671563780387
H           -3.30850561702266       -2.05663240464773       -1.46551172030411
