28
 energy: -52.260570446220 gnorm: 0.000789023920 xtb: 6.6.1 (8d0f1dd)
N           -4.92718046793566       -2.31532485970165       -0.51747269838313
C           -4.22870758782252       -1.42011854108486       -0.33768567474350
C           -3.35564900422925       -0.35670474283110       -0.11672908230400
C           -3.66186093245244        0.97949865431143        0.14797678020214
N           -2.57508330179007        1.75561183851179        0.33039353054630
C           -1.52342073941538        0.96637662687596        0.16782825334367
C           -1.93518820968213       -0.41636173734903       -0.11394455712101
C           -1.00593176370282       -1.40864225493181       -0.21043685898036
C            0.38065213177078       -1.12650251967611       -0.08849472779646
C            1.19751705716459       -2.23984749825699       -0.00927128889911
C            2.58243753516339       -2.40686845142743        0.18874324993388
C            3.54062001615963       -1.39461463017278        0.09415986120496
C            3.33637120433353       -0.05553645743059       -0.16741326800693
C            2.15158890285009        0.67795080956411       -0.21611910036148
C            2.39466423786430        2.02023435864342       -0.62039238445155
N            2.71386123475572        3.02378362212920       -1.07414584266321
C            0.80809219272792        0.27926269293054       -0.00182441282832
C           -0.15850411049878        1.27690944085671        0.21227766942439
C            0.18642442709721        2.59741539011278        0.58142783558745
N            0.40047137999636        3.64674226596031        0.99148246008067
H            4.23298553023742        0.53103598513347       -0.32930100846842
H            4.57221182380178       -1.71160424394719        0.18241942392985
N            3.01844256867679       -3.67394043055317        0.40560464537864
H            3.99150007944723       -3.85594431851587        0.56997343497478
H            2.36852161437845       -4.43257066872610        0.49767190249093
H            0.65953105110391       -3.18172312018447       -0.06006566558575
H           -1.32220266434433       -2.43635781447232       -0.32420764650082
H           -4.64397831370566        1.41211822066008        0.21579613147379
