24
 energy: -44.559123935377 gnorm: 0.000518207022 xtb: 6.6.1 (8d0f1dd)
N            5.41817654603023        0.68280397852732        0.00273197733646
C            4.27492384595269        0.59887288430135        0.00230885267857
C            2.86185060118047        0.50163138365791        0.00109912218893
C            2.16387863133964        1.69960574357711        0.00016641941406
N            0.86252728809216        1.94913168775992        0.00060264772496
C           -0.15846717738624        1.12956378589588       -0.00013157616716
C           -1.42399485791967        1.79648439256965        0.00094095729112
C           -2.56592567336829        1.06423675035562       -0.00005762453229
C           -2.46798167422662       -0.41229906720177       -0.00203579450511
N           -1.29042943137423       -1.04705908403759       -0.00254484982922
C           -0.18271152951750       -0.35590823327152       -0.00171188291424
C            1.00601505120319       -1.16970536817487       -0.00077806845046
C            0.74649098513159       -2.56884176914976       -0.00108003024076
N            0.60694936077474       -3.70543992743044       -0.00144978492751
C            2.32846548181259       -0.81272248372895        0.00087466787153
H            3.05446411377690       -1.61757951722654        0.00172831350445
C           -3.74149429830281       -0.91192469628334       -0.00332203607078
C           -4.64951248834445        0.20462274550548       -0.00211860760279
C           -3.96188886173213        1.38174015599225       -0.00027123177477
H           -4.36887812799583        2.37481161912681        0.00096306052065
H           -5.71998196154826        0.10035536802850       -0.00268701572129
H           -4.02553891417106       -1.94607635145637       -0.00500229387210
H           -1.41103344367630        2.87721153168561        0.00195160125564
H            2.75840122256919        2.60963955447770       -0.00035548567791
