28
 energy: -51.470287389949 gnorm: 0.000982452279 xtb: 6.6.1 (8d0f1dd)
N           -6.11441951762220       -0.08615220142121       -0.02000862007692
C           -4.96543733708491       -0.12664346050593       -0.01675132121710
C           -3.55695334595398       -0.16066370808234       -0.00781204019879
C           -2.98144125509695       -1.45262002069312       -0.00338729938270
N           -1.75554982556102       -1.86459413325832        0.00357027796473
C           -0.60734035054761       -1.17074682193065        0.00872808445960
C            0.53895864341711       -1.95520380060272        0.01550125990832
C            1.79101285332310       -1.35355415746762        0.02120869167602
C            1.83005159380237        0.13151544303630        0.01972266748522
N            0.75931790023158        0.88546824590482        0.01341424778593
C           -0.45261250958689        0.30478169021710        0.00786885491846
C           -1.48366193278272        1.22874667821778        0.00163200894711
C           -2.88210797334038        1.07707466588334       -0.00547652495323
N           -3.61909045791462        2.21157722004640       -0.01050912469538
H           -4.62381435839084        2.16745963106461       -0.01590102093181
H           -3.16818672669756        3.10859928556549       -0.00928961699165
H           -1.12685761125212        2.25288276954793        0.00238008705136
C            3.17966001682952        0.51208030691968        0.02611021221442
C            3.72301213740950        1.79292955016365        0.02732484728238
N            4.23662270574632        2.82317051049943        0.02903638819080
C            3.95244953403915       -0.68561182236094        0.03141162226225
N            5.29074240566108       -0.71969828101792        0.03822899586977
H            5.78335763302511       -1.59528738983198        0.04170052860300
H            5.81205734722471        0.14095468083615        0.03986675791594
C            3.09099884657361       -1.81197374455943        0.02831279174343
H            3.41574884995127       -2.83542729287915        0.03109698032647
H            0.42429564847931       -3.02889434865669        0.01609186896421
H           -3.70255961338202       -2.26796724183482       -0.00644578602179
