26
 energy: -52.032955885205 gnorm: 0.000433037841 xtb: 6.6.1 (8d0f1dd)
N           -5.77373312288579       -0.59735044848334       -0.00178615606345
C           -4.62476832997206       -0.58618158162786       -0.00137879404966
C           -3.21753003567088       -0.54069970327631       -0.00163062532218
C           -2.53433988841943       -1.76324713540393       -0.00747510414493
N           -1.26025086181059       -2.04131115009316       -0.00442717632706
C           -0.20382614549068       -1.22793868410589       -0.00104334386468
C            1.02200408072684       -1.88572711968113        0.00304656766851
C            2.20301252181220       -1.16674431646359        0.00059747404373
N            3.47039843155610       -1.55771969392494        0.00193769670046
C            4.16628071861987       -0.39150070276025       -0.00363259973267
N            5.49154009303494       -0.36721325682419       -0.00416698084650
H            5.96390605413807        0.52006095450916       -0.00816386161956
H            5.99989797945689       -1.23414841553390       -0.00063026151138
N            3.43395915202635        0.75254922719150       -0.00863572784959
C            2.18346569978388        0.31896847362878       -0.00632116841684
C            0.96846849823681        0.99551452164739       -0.00808575883318
C            0.91652454806634        2.40563415563414       -0.01188872890539
N            0.86766576203604        3.55138063449228       -0.01418262556724
C           -0.24320298616198        0.27171640072161       -0.00370415064165
N           -1.31666399006616        1.03578087837860        0.00037125152117
C           -2.60646287651042        0.75141889494230        0.00427186247834
N           -3.39333516488232        1.84139176133024        0.01275303081035
H           -4.39641486579360        1.77047437396342        0.01432713175834
H           -2.94199770143934        2.74077146285947        0.01439485903158
H            1.02666331142940       -2.96390623607006        0.00622095869222
H           -3.16147387752038       -2.65194535205033       -0.01370771440870
