27
 energy: -51.761946864386 gnorm: 0.000856274140 xtb: 6.6.1 (8d0f1dd)
N           -2.65493017231838       -3.68043287137321        0.09027628704313
C           -2.47041144819221       -2.54792478007101        0.10606528221584
C           -2.32760680038294       -1.13976591236161        0.11518393533666
C           -3.50415557428413       -0.45762749805066        0.52323477847494
N           -3.82812949012507        0.78802507332913        0.40497910033299
C           -3.01653675029736        1.74522730485578       -0.09901703586812
N           -3.66263302313564        2.82222917299701       -0.58518676837762
H           -3.13087079786274        3.63828074063996       -0.82951623743654
H           -4.65820944791802        2.88128381350825       -0.46602857533110
N           -1.71169756901886        1.81351433562127       -0.04479132286732
C           -0.79260649749918        0.86074593767259        0.06362507742052
C            0.51260385339123        1.29576446171785        0.25948619343355
C            1.56914990343258        0.41131638960767        0.12429848884077
C            1.31371453102798       -0.99495715855094       -0.24646588058414
N            2.45588960957949       -1.67834369792212       -0.39498953684413
C            3.44193711958386       -0.80747298928276       -0.14341981488170
N            4.72469923078149       -1.16030480995609       -0.19677049724118
H            4.96090479924917       -2.11010257260184       -0.42746507199044
H            5.44811696211302       -0.48703698609375       -0.00974134424301
C            2.95610509014608        0.51566968761002        0.18240072268479
C            3.76713401491646        1.60294841500509        0.47590202718420
N            4.48348626934047        2.47311449220754        0.71124671049828
C            0.02027494168999       -1.45825179909561       -0.35581135070567
C           -1.05392199724141       -0.59509089438085       -0.11901875525983
H           -0.15875812797046       -2.50271032356510       -0.56219934544276
H            0.68284546790375        2.34539381200983        0.44233322769560
H           -4.28139471690957       -1.07589927927623        0.96494836551242
