25
 energy: -43.508245675740 gnorm: 0.000883067079 xtb: 6.6.1 (8d0f1dd)
N            4.24647616953969        2.55913088164099       -0.04190722598183
C            3.71364017397386        1.53975538633159       -0.02274113432189
C            3.04996764754975        0.31615779875321       -0.00339035487484
C            1.64833653902641        0.10263361373021       -0.00652493277186
C            1.50907644973211       -1.36311709699909        0.01782186950956
N            2.70445590427402       -1.95544086821491        0.03469351759867
C            3.61126198107783       -0.96771919056184        0.02205452684858
H            4.66151944105662       -1.20197982191540        0.03198822556374
C            0.24822718785992       -1.92935407623755        0.01727962375591
C           -0.89767435128206       -1.13402670975170       -0.00151394459753
C           -2.13365485943681       -1.79612838885567       -0.01533250607951
C           -3.43243129818983       -1.31004901661579       -0.03072768677927
N           -3.91242099886925       -0.08462572974270       -0.01703899381466
C           -3.21570318571433        1.03948797104388       -0.00032225289743
N           -3.98701725577019        2.15385137446643        0.01022878998075
H           -3.59439244852493        3.07403675728270        0.07961662712266
H           -4.98351961617552        2.03309758748423        0.04947827962553
C           -1.81015044020750        1.23300232738009       -0.01136815402109
C           -0.75795458286727        0.33987255174466       -0.01382846976416
C            0.54068253689162        0.90258173352092       -0.02148069276095
H            0.64555794204306        1.97884731565280       -0.03557395252051
H           -1.51942367248972        2.27889075793980       -0.01631262376784
H           -4.22281667664543       -2.05473755673182       -0.04973562375215
H           -2.05977939680718       -2.87732225598739       -0.01544644336654
H            0.15374856735514       -3.00437003175759        0.02941327546659
