29
 energy: -60.776388284576 gnorm: 0.000467101623 xtb: 6.6.1 (8d0f1dd)
N            5.21410512781134        1.51477891815571        0.81587226436692
C            4.40543965306079        0.73343656023519        0.58248064044990
C            3.44967533350948       -0.24128763554184        0.29661962863793
C            2.06475141225016       -0.11479973547653        0.23257836639030
C            1.58582148531388       -1.46437680132939       -0.12978046348010
N            2.62149614372834       -2.32835131048955       -0.20878647319510
C            3.70262367046328       -1.63242759810105        0.06033321085292
H            4.66691995630928       -2.10755948637540        0.09326489501095
C            0.25414013366376       -1.62246435638014       -0.42936080447274
C           -0.19803029819189       -2.81175465252654       -1.04415786436374
N           -0.51604922512112       -3.74255459067711       -1.63256585962180
C           -0.64221266986599       -0.52579984196125       -0.17176535083612
C           -1.97511349342180       -0.80889138132390        0.09049628939559
C           -2.36754385601504       -2.15381979760193        0.29460274351720
N           -2.79022606032701       -3.18740829229566        0.56287073050173
C           -3.05101132147550        0.13710861247227        0.31841048507737
N           -3.09016541805244        1.38969641185854       -0.05494684606545
C           -2.10813923953439        2.21735351454188       -0.37910988565540
N           -2.50756027713664        3.38882763570574       -0.90075216906835
H           -3.49306608281461        3.56562841669790       -0.99121709414031
H           -1.84543771087788        4.12625785321355       -1.07504938924333
C           -0.72617248360405        2.02245343192573       -0.11585800953342
C            0.05916748943894        3.19382136443922       -0.06233417759743
N            0.61933215258639        4.19595043690242       -0.04729373272147
C           -0.02625771724200        0.80093901917242        0.01521659403986
N            1.26939823819829        0.93863504811971        0.22800574686030
N           -4.17415761063290       -0.32136161002902        0.89083664481470
H           -4.28837741314987       -1.29251122902575        1.12920775744351
H           -4.94599433086864        0.31480681039902        0.99652071773703
