23
 energy: -48.077234297340 gnorm: 0.000900289148 xtb: 6.6.1 (8d0f1dd)
N           -1.18892447524058       -3.81653984900546        0.13281291480469
C           -1.37777203340419       -2.68758794012094        0.05496248212148
C           -1.65126432010010       -1.30529365172227       -0.05588431021783
C           -2.95609507907986       -0.91044580578496        0.24048299863553
N           -3.52025663859575        0.26859853016893        0.16255377712806
C           -2.86443887474910        1.41791675567312       -0.01888244817960
N           -3.61182273177417        2.46274860706832       -0.40157658914338
H           -4.60612374841616        2.34101722617877       -0.48433447970514
H           -3.20642705615159        3.38255998442600       -0.39361881995965
N           -1.61046242901749        1.68201867567319        0.30835700807391
C           -0.54481180210610        0.93441089463063        0.20852404922414
N            0.60618007038178        1.43763966385206        0.63188337533862
C            1.73699968045457        0.81026819235667        0.48971843680859
N            2.97970934763356        1.22302784877898        0.58801793114007
C            3.71015916218572        0.24587136813139       -0.01393711194829
N            5.03691477830741        0.30942752989240       -0.07518997057699
H            5.53967808470817       -0.40588960030569       -0.56899687635324
H            5.51007913387317        1.08422926700804        0.35360283351098
N            3.01028448811553       -0.73676713737807       -0.61801598485813
C            1.75976735698605       -0.49607707811000       -0.27736330762175
N            0.62472298550503       -1.02403145740083       -0.59400837127445
C           -0.52249445489606       -0.46391948094384       -0.30121634448287
H           -3.63920426402040       -1.69806357116658        0.54552828813550
