26
 energy: -52.808907127073 gnorm: 0.000662176340 xtb: 6.6.1 (8d0f1dd)
N           -5.26883564221929       -0.84229692302685       -0.18585097142755
C           -4.35108976239581       -0.15568421439824       -0.13076646957406
C           -3.24888260028646        0.70294408936736       -0.07723848067529
C           -1.89647133891106        0.34988291702977        0.08271050515269
C           -1.16648027259491        1.65878521865047        0.04965130306398
N           -2.03478198048957        2.64432848294809       -0.06499731537338
C           -3.25709637052279        2.10873855424295       -0.07925384677791
H           -4.12362073748637        2.74370532413448       -0.11490505078902
N            0.12436988580580        1.63868519505120       -0.09127836283061
C            0.82749464251250        0.51377176316396       -0.08153546735827
C            2.22836381588925        0.69125952557773        0.04578339396057
C            2.60505868558190        2.02057227077676        0.35357160936657
N            2.97362017880850        3.07864777049407        0.60423729751235
C            3.29395818800870       -0.22254689593221       -0.11577084041769
C            3.17232848626077       -1.61942142384931       -0.26264337103137
C            2.05394766938682       -2.40349654399446       -0.11260413648433
C            0.72110241020053       -2.03764367292782        0.06139014169079
C           -0.16329701187258       -3.09610297799745        0.38356713070883
N           -0.84619366932115       -3.97990478068628        0.64160954290095
C            0.11241043574372       -0.76073742113976       -0.05696801422820
N           -1.20979884462957       -0.74333778210179       -0.04165414833882
H            2.22539255135363       -3.47375435928772       -0.10934152382577
H            4.10687567041190       -2.14433484526579       -0.41351968275657
N            4.54635344213154        0.27917152945043       -0.10908687977157
H            5.34003298065701       -0.33077210217955       -0.19332831523592
H            4.70161908737628        1.26622574899899        0.01261850974081
