22
 energy: -40.330614938761 gnorm: 0.000810307410 xtb: 6.6.1 (8d0f1dd)
N           -4.30522339428744       -2.04259086328431       -0.59384816747188
C           -3.60462158322188       -1.15681642433642       -0.37994728256144
C           -2.74728292632065       -0.09080246765217       -0.11600345128134
C           -1.35411152450666       -0.09374177666178       -0.09009113476283
C           -0.98687958916994        1.29482398864526        0.24661260938592
N           -2.10352985034706        2.05494256737191        0.40633244298414
C           -3.12326823969282        1.25635984299534        0.19865954570461
H           -4.13303121436605        1.62113661307215        0.27079807524782
C            0.32136578998637        1.67719205023574        0.31640439282438
C            1.33261170420021        0.73659294935820       -0.00098111165362
N            2.50559672438948        1.22450116175670       -0.28537401732533
C            3.64550408845466        0.61029562750082       -0.52874805596502
N            4.06423328162695       -0.52126467321395       -0.03101352170517
C            3.29217549143155       -1.50375196778216        0.40215917436873
C            1.93281825988715       -1.68606200918531        0.19042572036117
C            0.96556414687036       -0.70905184591385       -0.11129128337660
C           -0.36852357508001       -1.06416690076418       -0.22392679751685
H           -0.64243706171547       -2.09979658090475       -0.36889107680457
H            1.54348442905018       -2.67699408231273        0.39638483592233
H            3.84167255155752       -2.30331267664361        0.88613156637416
H            4.38381816650523        1.20077000630585       -1.06046511539241
H            0.60291186944838        2.70366649191372        0.48729100804420
