29
 energy: -55.993750793166 gnorm: 0.000356605729 xtb: 6.6.1 (8d0f1dd)
N           -6.36994234969034       -0.75630910376052       -0.11240670644893
C           -5.23737898820975       -0.58924926466799       -0.01794606071337
C           -3.85219009312279       -0.35412362904101        0.09626116913283
C           -3.06690748185088       -1.43437342266130        0.55519485971643
N           -1.79079350285114       -1.61255818052418        0.50276380493312
C           -0.78660466550410       -0.79050505078351        0.22669157039279
N            0.36225580962276       -1.39858050836568        0.01760561759999
C            1.47385164758875       -0.68199414860846       -0.03049728721311
C            1.50086487678443        0.77331729876338        0.21834199701187
C            2.85305908201753        1.18632151904963        0.19530432345607
C            3.33426971402309        2.47820393898295        0.39134196286913
N            3.74321321928431        3.54282263333970        0.54509966583232
C            3.64151801808109        0.05091739529171       -0.07961377314103
N            4.97150530947083        0.01619382280201       -0.19380336864289
H            5.43774097125593       -0.85501735775104       -0.38515321107558
H            5.51432598784727        0.85443993176758       -0.07018291086772
C            2.78483379121271       -1.10118890947646       -0.22529620952840
C            3.27206359161549       -2.37677410200505       -0.50471585884967
N            3.75473809544004       -3.39335498309384       -0.74112061874037
C            0.30973717085888        1.43257025506607        0.34493668358227
C           -0.89480097791401        0.69668728996583        0.24262636218090
C           -2.06561867113471        1.39194715686202        0.01783365324620
C           -3.38829302310900        0.94540037170458       -0.19545832912490
N           -4.28148117559403        1.86332526903158       -0.62627961989840
H           -4.00343998777282        2.81481703129069       -0.78679569325754
H           -5.24798870597961        1.61225638382940       -0.74872655056619
H           -1.94445238076883        2.46745932809876       -0.08086192486132
H            0.27314270570131        2.50819244518907        0.45815219690716
H           -3.61623990480403       -2.29081933639900        0.93751179766627
