27
 energy: -47.754167422718 gnorm: 0.000864624637 xtb: 6.6.1 (8d0f1dd)
N           -4.34361246922787       -2.01958557657277        0.00824110786174
C           -3.69479205491197       -1.07098922787251        0.00550269366397
C           -2.94028440445355        0.10164590477348        0.00361785670464
C           -3.45771054447140        1.42861429424333        0.00782632700223
N           -2.52787049267212        2.36499002533513        0.00512292222297
C           -1.34262594521740        1.71171975627398       -0.00090427242705
C           -1.55237826294192        0.25985978285367       -0.00214492050337
C           -0.44670654533687       -0.59040656122462       -0.00805975721353
C           -0.67030278053857       -1.98323987752115       -0.00897697639090
N           -0.85259842591996       -3.11719915686451       -0.00908135885901
C            0.87233373695389       -0.07308755537229       -0.01064199380546
C            1.89895160269535       -1.02031426467319       -0.01631468405626
C            3.29131287385867       -0.93144174473241       -0.01195150967918
N            3.98128721275256       -2.10409882988744       -0.04929613814008
H            3.49347860108475       -2.97840257139178        0.02978890833626
H            4.97919737615595       -2.10945726219886        0.05909991375099
C            4.05008515190253        0.25549432366609        0.00045073623340
C            3.59797427309302        1.55032771194514        0.00233469663734
C            2.28948879433472        2.03175497164130       -0.00369030045396
C            1.05966589238603        1.38397519362153       -0.00667051554673
C           -0.07624476673617        2.22618682186031       -0.00414310039389
H            0.05939898540910        3.29698765262738       -0.00249076502251
H            2.21689160764248        3.11335796332029       -0.00289713649401
H            4.36541837864401        2.31381880249405        0.01005557003837
H            5.12458986660700        0.11720867934506        0.00611513711346
H            1.53864702847949       -2.04514080910408       -0.02465288469024
H           -4.50110701957185        1.69146651191486        0.01294297231079
