23
 energy: -40.058683734286 gnorm: 0.000451570879 xtb: 6.6.1 (8d0f1dd)
N            4.26287633389875        2.16308040026206        0.00259419651261
C            3.57621013010592        1.24117964885983        0.00168113752719
C            2.74395022013178        0.12334655234877        0.00099614158278
C            1.34558162236041        0.08456747231652        0.00078951485958
C            1.01871577088764       -1.34851335455992       -0.00019172391766
N            2.14662343026047       -2.09667481745399       -0.00049986991917
C            3.15180021570032       -1.24145447440846        0.00017909606105
H            4.16907152758235       -1.59244508448755        0.00013358003147
C           -0.28669582652665       -1.76118238938934       -0.00070984972309
C           -1.34278211280718       -0.82508088363836       -0.00028068560696
C           -2.62848018927448       -1.33974626207050       -0.00097982946188
C           -3.87339767456229       -0.69360758433409       -0.00081493392399
C           -4.11705120937552        0.65575031577363        0.00020912873315
C           -3.15582689771578        1.69269315035442        0.00129402397472
N           -1.86207156632783        1.65404178464762        0.00148910595622
C           -1.00729102704498        0.62859402168191        0.00082941243090
C            0.32739680973303        1.02234864894106        0.00129168474124
H            0.54202301963986        2.08038906143698        0.00208468143048
H           -3.55012879967215        2.70563825074113        0.00206755411647
H           -5.15110065130508        0.97527621242519        0.00019944395251
H           -4.73633980677957       -1.34763705848603       -0.00156615065625
H           -2.68377333502084       -2.42316435692063       -0.00181912757601
H           -0.51149933848814       -2.81782984054025       -0.00150261182528
