30
 energy: -60.504918012947 gnorm: 0.000911123855 xtb: 6.6.1 (8d0f1dd)
N           -5.62876437051612       -1.38390538462166       -0.61567028537764
C           -4.51252586403827       -1.15406446605011       -0.47748179711641
C           -3.14306425931387       -0.85105004547564       -0.31734935189431
C           -2.23477164098974       -1.83126252010857       -0.69805985573575
N           -0.97108492833627       -1.92114516582954       -0.37515104357351
C           -0.08057925785970       -1.02817137169765       -0.05611437567817
C            1.20299083320670       -1.52087274997853        0.32554340235815
C            1.33929746950250       -2.88356923462823        0.66510572571897
N            1.43967224137902       -3.98476325691250        0.96637099018594
C            2.30251371786479       -0.69170186301590        0.21075441224096
C            2.13509220158462        0.69792028431899       -0.27507672730761
C            3.40009001930196        1.19394933742288       -0.40130960049898
C            4.26656152101051        0.11836609919472        0.02153806229786
N            3.59589274885811       -0.98481898570148        0.37997239651441
N            5.59495518882037        0.16220259624571        0.06640197620032
H            6.09818264084468        0.98936146770149       -0.20213198705528
H            6.09275036872636       -0.65376492386075        0.38127799605254
H            3.71183533234593        2.16543374882407       -0.72799252398612
C            0.83453578302153        1.23876547471149       -0.41510885043230
C            0.72627039506439        2.58720479008527       -0.81094088735795
N            0.70801221297748        3.66057043359708       -1.21746458958515
C           -0.27505631807324        0.43486482078940       -0.18020729382254
C           -1.53050209213162        1.00702820974738        0.16970821846811
C           -1.47201368807486        2.33184815824692        0.66738713001735
N           -1.49721359240111        3.37293042243547        1.15188305181280
C           -2.81741463207905        0.43023431516856        0.22336799626698
N           -3.83361997157994        1.16007356025240        0.72955876764693
H           -3.68248441547235        2.10830997952878        1.03162201956272
H           -4.77394140874722        0.80325624854320        0.69483980922334
H           -2.61902551000734       -2.70487539355625       -1.21410318883629
