27
 energy: -52.532754911633 gnorm: 0.000711352946 xtb: 6.6.1 (8d0f1dd)
N           -5.33149494866796       -1.67621257156753       -0.13748219133931
C           -4.46001507265860       -0.92830180882632       -0.10912168713938
C           -3.41116116215280       -0.00949023742486       -0.06852052195855
C           -2.03364921879883       -0.26648851485570       -0.10043354517991
N           -1.33628860912750       -1.37570235361483       -0.02796989359683
C           -0.01195019202113       -1.34419591088230        0.04166595367730
C            0.55909201143700       -2.63003990689049        0.08582008300390
C            1.86277689675056       -3.03318581166076        0.26776198000784
C            3.01609870110965       -2.26862480192241        0.31385099964554
C            3.17268483379110       -0.90053187500492        0.07138844971523
N            4.43978451592857       -0.42839154857563        0.02232741000695
H            5.21605382597060       -1.06175616869807        0.09332899244625
H            4.62654569188144        0.54039330517870       -0.17427438830232
C            2.11745841256810        0.04289399713541       -0.11782518695029
C            2.57852431056929        1.28324129058079       -0.63449926218013
N            3.04100319981063        2.18602240990311       -1.17285607579192
C            0.73139979244297       -0.07877440872462        0.06527003874378
C           -0.03504351588339        1.12544795286878        0.13836298699478
C            0.55044315037244        2.35277085327217        0.52764656189722
N            0.96509084258778        3.33734702476033        0.94372800180749
C           -1.40704058820223        1.06840779275921       -0.02041592008617
N           -2.34361172807417        2.02495614842061        0.01100713936055
C           -3.51447745029207        1.40496363596040       -0.04942502366552
H           -4.42765122838482        1.97233412454011       -0.07739997567488
H            3.93992005711745       -2.80799278979761        0.48349851826886
H            2.01059802716330       -4.09947694469628        0.37968360923584
H           -0.18842268073733       -3.40900295743830        0.00870175825354
