32
 energy: -59.162526438158 gnorm: 0.000637818997 xtb: 6.6.1 (8d0f1dd)
N           -5.75425267602766       -0.17317990896505        0.26343921981949
C           -4.61040028075286       -0.09216188318970        0.15954216807987
C           -3.21452706883954       -0.00223558505558        0.03661794331058
C           -2.51125753894274       -1.23661326060118       -0.17089903328759
N           -1.22901907600351       -1.46961579648793       -0.12266564625383
C           -0.15703329984529       -0.69105356591913       -0.02833796905269
C            1.04894188735968       -1.38949899416925        0.10158599743349
C            1.00916780344808       -2.79422950710477        0.19787514616165
N            1.00344204695385       -3.93944197596117        0.28187696863191
C            2.29063559858177       -0.72804061667563        0.10187645013463
C            2.31921073778244        0.74235403065771       -0.06502035562964
C            3.64810814474216        1.14177432436849       -0.07069971200895
C            4.43241934830095       -0.01102258952657        0.08647369140714
N            5.77202867110924       -0.05543691804069        0.13450948256503
H            6.24858329854131       -0.93310016189992        0.24286370562686
H            6.31339077407033        0.78670911011049        0.05026103449868
C            3.58360623697587       -1.16331429421459        0.19210365120663
H            3.92147046773998       -2.17421832140704        0.31486870836580
H            4.01181794037378        2.14581801410569       -0.17307945577312
C            1.12374594116125        1.44589449666256       -0.16018998409148
C            1.18182299893937        2.84500865809195       -0.29232584287474
N            1.24306966308462        3.98828331489425       -0.40189077596734
C           -0.13917664872903        0.78560495850894       -0.09097455258299
C           -1.26488014287424        1.57944489176244       -0.02360200910000
C           -2.63981359649052        1.27380021575080        0.10281536850284
N           -3.46397749687910        2.33587308058419        0.27525394174214
H           -3.09178610527536        3.26713158626199        0.31897633751788
H           -4.45647612621430        2.20272094570456        0.36329002168989
H           -1.06616849342269        2.64722541086761       -0.02496714671282
N           -3.25441339355467       -2.34062905986100       -0.42072821269287
H           -2.76528078105389       -3.21827898111588       -0.46072559479370
H           -4.25673244535970       -2.32611074783658       -0.35228254597280
