30
 energy: -55.712324552652 gnorm: 0.000640059658 xtb: 6.6.1 (8d0f1dd)
N            5.73643068166576        1.77924322637121       -0.02727723813734
C            4.64508321479972        1.42123608125630       -0.06009271596842
C            3.30939178125545        0.97333920465446       -0.11369741207660
C            2.34976836020016        1.95025083327751       -0.43488953421519
N            1.05959389977191        1.92025427259503       -0.32066368056738
C            0.21143168694194        0.91988874892000       -0.13065458018129
C           -1.10804157550863        1.31110044469114        0.08587062866900
C           -2.13769567287037        0.38911151232258        0.05950763828724
C           -1.84434804132712       -1.02461378081760       -0.23534650579509
C           -3.04705842523962       -1.71635649234105       -0.28073093944871
C           -4.08304672237658       -0.80323784381577       -0.02162408127606
N           -5.39403235556259       -1.06702893431069        0.03130814029893
H           -6.04723731602929       -0.32613711917316        0.22440704725654
H           -5.73725513670356       -1.99978565299673       -0.11648997133782
C           -3.52174124823720        0.50694543875017        0.18769912257061
C           -4.27679334203661        1.64113556901266        0.46161088988660
N           -4.94840512171180        2.54930116621103        0.68720604501768
H           -3.17507135376247       -2.76418395476332       -0.47315314592314
C           -0.52563922595011       -1.43397292689723       -0.36029809395800
C            0.52896915974469       -0.53447852264517       -0.22162063473702
C            1.82840617405089       -1.05182244102073       -0.03200441253949
C            1.92016470969365       -2.46152559201751        0.06980200661295
N            2.06186655799125       -3.59914698275422        0.15204830325377
C            3.07763755392283       -0.39579755896163        0.14683403081219
N            4.13785241240659       -1.14405599780662        0.53454510746422
H            4.05241012046604       -2.14040516193627        0.64121759698256
H            5.05154513724940       -0.72565690284486        0.58181219725959
H           -0.31590401531303       -2.48306639890905       -0.51376322839618
H           -1.30826335291395        2.36483995312711        0.20573692545353
H            2.74028721828866        2.91928489292232       -0.73385927906825
