27
 energy: -42.145673883883 gnorm: 0.000501480904 xtb: 6.6.1 (8d0f1dd)
N           -5.21028224212017       -0.34319173654203        0.04152800415760
C           -3.85606400418301       -0.24118372156822       -0.00894506295061
C           -2.94998868103151       -1.29577602388073       -0.03833988826778
C           -1.66075462972563       -0.74619697681915       -0.02936509806381
C           -1.80619126113330        0.72257880404611        0.00633065713811
C           -3.14904959263290        1.00382884662329        0.02025320468512
H           -3.61266153885478        1.97254813520173        0.04748558780581
C           -0.65792991822513        1.51696206716133        0.01066074894680
C            0.61045625637786        0.97078686410255       -0.00994990027841
C            1.70845679697815        1.86264610200270       -0.01863545369379
C            3.06377418308027        1.64009649206677       -0.02299552380036
N            3.78346935599359        0.52149861169690       -0.00118723519168
C            3.30778455326184       -0.70297918495058       -0.00439652049800
N            4.27995250107506       -1.66850919558846       -0.03924163118945
H            4.05896524441981       -2.60977134614262        0.23300118322360
H            5.21968110384138       -1.34602796994044        0.11787240728249
C            1.96641999609281       -1.16890436866019       -0.03022066868284
C            0.76028257168620       -0.50047170016737       -0.03117246143372
C           -0.40679104744080       -1.29787087133546       -0.04767233549815
H           -0.29225608767703       -2.37373161978597       -0.07051694820156
H            1.88911147283381       -2.25201198156275       -0.04826533211057
H            3.69925185771418        2.52148829171839       -0.03110924260752
H            1.42303274157218        2.90904371794667       -0.01930977388767
H           -0.76603961358658        2.59322964673939        0.02863354131227
H           -3.19615482933709       -2.34055160115028       -0.06392682343295
H           -5.63272783165744       -1.23167539320527       -0.16565581540587
H           -5.76007792442185        0.47825424039365       -0.14108715325710
