26
 energy: -52.817446632076 gnorm: 0.000685330468 xtb: 6.6.1 (8d0f1dd)
N           -3.10179808065829       -3.65314626610366       -0.00068063769600
C           -2.82699027332625       -2.53990195954391        0.00039317875949
C           -2.56449519906671       -1.14466458479042       -0.00021806180721
C           -3.75064078534540       -0.38131789330798       -0.00060860298092
N           -3.95976755065233        0.90684090510607       -0.00076994476758
C           -3.04242996711962        1.85871155460298       -0.00054935288153
C           -1.65535094140655        1.78953771914276       -0.00027036050335
C           -0.99665391366161        3.04932520599796        0.00068660612342
N           -0.53874784814526        4.09921589740408       -0.00106419918588
C           -0.77293013731759        0.66682810774788        0.00000755039686
N            0.49483910080240        1.01776664724094        0.00031105208197
C            1.42742911588823        0.07239145291806        0.00062773196020
C            1.10032387900710       -1.36781303340626        0.00067128502953
N            2.20991503585854       -2.12004915200792        0.00101100149625
C            3.23271704476282       -1.26260155386545        0.00116081736133
N            4.49793949843208       -1.66400066397483        0.00146199286804
H            4.69660137782599       -2.65066925448016        0.00158537716106
H            5.24763081142192       -0.99229824221543        0.00156986185546
C            2.80854097596566        0.13311747780328        0.00091591656266
C            3.69027581710529        1.20893114761316        0.00078449591272
N            4.48644855615180        2.03838106954193        0.00137900216162
C           -0.22385753531030       -1.73834510313820        0.00042074678804
C           -1.21313122292521       -0.74046282921629        0.00006435196172
H           -0.49937980718643       -2.78240736539908        0.00046434612340
H           -3.47220590197459        2.85653014719613       -0.00063260000332
H           -4.67140075852569       -0.95986690116559       -0.00084160197791
