25
 energy: -48.286461991772 gnorm: 0.000975495605 xtb: 6.6.1 (8d0f1dd)
N            5.43146887618462        0.74279424728385        0.12892512649886
C            4.29053110027636        0.64412679279887        0.04706774577214
C            2.89050869142016        0.49551560917379       -0.05159245550258
C            2.16446448006430        1.63779965892147       -0.46160157748113
N            0.90428018230853        1.89246922698955       -0.36868909836263
C           -0.13224921876025        1.12507820151552       -0.05150806132719
N           -1.22290836452475        1.77727302475128        0.28038209232168
C           -2.38598944494885        1.16651385592851        0.27831775685439
N           -3.55316930975187        1.64201660038926        0.65044185171142
C           -4.46409370526217        0.67345360499944        0.37803973165149
C           -3.91341063789291       -0.50282619331745       -0.10608248123054
C           -2.54106067513880       -0.25335544897566       -0.20052537073647
C           -1.38962237230818       -1.00234677080653       -0.33315913540771
C           -1.46581881934278       -2.40088109353014       -0.50150516918474
N           -1.53147334014833       -3.53754155792765       -0.65120792091292
C           -0.11788515656794       -0.36089831888412       -0.17640349509961
C            1.00676770761815       -1.14231298956329       -0.06923827741908
C            2.35777867079910       -0.78824381946512        0.17469842693052
N            3.19193250647503       -1.78518622127086        0.53458616342188
H            4.17453574634280       -1.60620293459923        0.65915645015598
H            2.85430409923130       -2.72685101880535        0.62968030836122
H            0.83674044490981       -2.21435386346778       -0.12834448029219
H           -4.43128733450362       -1.40103212854875       -0.37864426328964
H           -5.50462552666658        0.87426237866381        0.56297038654673
H            2.75687493838678        2.46708820384629       -0.83920918708069
