25
 energy: -48.289933974620 gnorm: 0.000588620751 xtb: 6.6.1 (8d0f1dd)
N            1.73684333290614        3.51035394257465        0.00100836144588
C            1.91182449097948        2.37801252685223       -0.00073518485621
C            2.21966089160522        0.99171329483901       -0.00028828686590
C            3.59160739651545        0.69911632132493       -0.00038753547526
N            4.23645650048331       -0.44114873956141       -0.00075442052607
C            3.70631941276758       -1.65128913475065       -0.00101542658737
C            2.38856008600355       -2.07659037292500       -0.00080970533590
C            1.19092323119945       -1.34365306906575       -0.00049026400287
N            0.09328063023484       -2.10114047030793       -0.00033666974956
C           -1.07778912895813       -1.48321632487632       -0.00011930270882
C           -1.16000911632333        0.00664727742668       -0.00012073976760
N           -0.07342080828740        0.75565420196537       -0.00028049791577
C            1.10214467427180        0.12775699103917       -0.00037075993072
C           -2.50576028087023        0.34595349308319       -0.00017653792356
C           -3.10706441557799        1.60364342463484       -0.00076092230106
N           -3.68197545689037        2.59952600889564        0.00046678783955
C           -3.24923175137868       -0.88700383982602        0.00003420981822
N           -4.58153929676386       -0.94336292143656        0.00009692068334
H           -5.05960963033177       -1.82796970078794        0.00014905907827
H           -5.11848711781953       -0.09106891851996        0.00009297363525
C           -2.36318986536455       -1.98536451120215       -0.00000907753741
H           -2.64781744148403       -3.01909013169818       -0.00002648809025
H            2.22414824538960       -3.14731767952258       -0.00094524913511
H            4.46388625163104       -2.42971681270323       -0.00141598672655
H            4.25302169896239        1.56221173934799       -0.00014687306451
