22
 energy: -44.336528699480 gnorm: 0.000512674803 xtb: 6.6.1 (8d0f1dd)
N           -4.56515976433822       -1.57013847358877        1.35517860711280
C           -3.85476034110108       -0.81101350937702        0.86642828775565
C           -2.97869703739901        0.09655321214398        0.26899272274911
C           -1.56902342487865       -0.00214570053527        0.20379642473158
C           -1.16109118945042        1.24004817617573       -0.53186385897669
N           -2.22614708972890        1.94204570716620       -0.87141609931394
C           -3.29374456704133        1.30957637995642       -0.35734012923610
H           -4.27363595044834        1.73920177415096       -0.46644780022431
N            0.09873207358785        1.48932064347827       -0.78739979504181
C            1.02073518361791        0.62528080181376       -0.46011371021917
N            2.21874623822458        1.01782430344170       -0.10237903571003
C            3.31028572497295        0.28608707396725        0.11771297068433
N            4.25794939702791        0.88908679739542        0.84547182751284
H            4.11344848452803        1.83660221653828        1.14813900085549
H            5.14617228191057        0.43545785440345        0.96748000048369
N            3.63487060115162       -0.91437264431772       -0.38496109848373
C            2.72723601606860       -1.78365538055976       -0.75440107056166
N            1.46626392649834       -1.80255315889640       -0.40515716818263
C            0.63945640469557       -0.82037809886392       -0.19459792835452
C           -0.66668796848131       -1.03502362797498        0.27818647220726
H           -0.97247707940485       -2.04542937625743        0.51110532375254
H            3.09382003878737       -2.67596330885932       -1.24854243354018
