33
 energy: -52.455707147213 gnorm: 0.000653574342 xtb: 6.6.1 (8d0f1dd)
N            4.90271739933441        0.30016611725812       -0.99741544875484
C            3.66841890103632        0.27910694137783       -0.42223762910660
N            3.00936966395160        1.40266207766887       -0.49260347207494
C            1.74821253559672        1.61877441917867       -0.09160874611710
C            0.67465622620714        0.78128731739765        0.10312044197039
C           -0.64892434183876        1.36476600784220        0.22350925361496
N           -0.83937494013859        2.70458844247107        0.45670784185714
H           -0.06840384928525        3.33090652565842        0.29820655494030
H           -1.73594679933243        3.04946121443161        0.14732695169344
C           -1.75277181804845        0.55550013153059        0.08675964399229
C           -1.61772400446012       -0.85958955718569       -0.19949438379254
C           -2.89001924577547       -1.36357472168439       -0.44288145146860
N           -3.23011460743171       -2.68738024296383       -0.70343929507853
H           -4.11456041284348       -2.79396179337812       -1.17939921171078
H           -2.49228107441633       -3.22063837396213       -1.14033285839317
C           -3.82258890178175       -0.30884289694534       -0.27456475748355
C           -3.15340989125682        0.84720068513582        0.06325390463212
N           -3.72136860929931        2.11340929534595        0.29565002638194
H           -3.44758263092166        2.49668636935371        1.19418247868101
H           -4.73233322319780        2.07027682825719        0.23770024945334
H           -4.88859306688465       -0.40861936227314       -0.39154238915251
C           -0.35229703650647       -1.44789987961327       -0.10415763805211
C            0.76810052201822       -0.68268412641270        0.10593949967423
C            2.00713627336819       -1.35468454220701        0.46473934173756
N            1.85539680638481       -2.59258251662781        1.02906952824238
H            0.96659050486163       -2.81915396541380        1.44041149876302
H            2.66713786216537       -3.02828309494726        1.43338640485753
C            3.28598177057007       -0.92476465186109        0.23742196760066
H            4.09165546693448       -1.59835927312354        0.50797836273933
H           -0.26674454500321       -2.52228605815811       -0.19825772776351
H            1.57818399307134        2.69032459872877       -0.03578000797232
H            5.56776982814634       -0.42373432336404       -0.79428216456595
H            5.23895080877725        1.18684485727788       -1.32946262754779
