26
 energy: -52.032087732432 gnorm: 0.000901414298 xtb: 6.6.1 (8d0f1dd)
N           -4.81990744574994       -1.24352677599249       -0.94932181061577
C           -4.02836372057042       -0.49601571568214       -0.58292524860813
C           -3.09341523383761        0.43751610925435       -0.13427017832198
C           -3.39109644758788        1.74632530998814        0.36219271799456
N           -2.33640711437861        2.43306768754651        0.74515638050246
C           -1.26817034542388        1.64187578977166        0.50525167914367
N           -0.02939718655332        1.93786772977552        0.73346404866868
C            0.92367424607769        1.03923002737490        0.40883833700205
C            2.17909918958027        1.55175637026453        0.19856367700439
C            3.34824117495663        0.85090460532189       -0.24907453509100
N            3.61367281634086       -0.42505619233218       -0.11139548359652
C            2.74912975865876       -1.36190080864493        0.30020573187753
N            3.29801270226028       -2.48854442630800        0.78162832325699
H            4.29514463239923       -2.60213015732135        0.73703307700156
H            2.70355301240396       -3.28630470857895        0.92726118731147
N            1.44311304462082       -1.37388261177215        0.13652353660838
C            0.59016538272830       -0.37330511446241        0.09859316203323
C           -0.75260266895498       -0.66452527685429       -0.22532481728847
C           -1.09880970676957       -1.98508201176498       -0.58447955123696
N           -1.37014362488278       -3.05661185921378       -0.88889691068954
C           -1.70870214640923        0.33828221266165       -0.07619293073333
N            4.32270518005697        1.59381170752729       -0.80302161067189
H            4.22176120280918        2.58552155516360       -0.91874476044665
H            5.16092834921160        1.13467508250816       -1.11406211226571
H            2.25123520920576        2.63053892182347        0.26155057666718
H           -4.37693720549164        2.17097595264649        0.43909076879386
