30
 energy: -49.305158042762 gnorm: 0.000797604495 xtb: 6.6.1 (8d0f1dd)
N            4.70881803306280        0.77167610062599       -0.82962909149971
C            3.46077528393401        0.53610309093024       -0.34541672656417
N            2.68129971751372        1.58677851248215       -0.31461230999567
C            1.40933245354182        1.63352304122801        0.08011922681254
C            0.42463149329043        0.67150817689204        0.16064083775002
C           -0.95407612695122        1.10366822040587        0.26584584463952
N           -1.31034709153584        2.37964960220102        0.59541099160202
H           -0.61976373497580        3.11018699549230        0.57299352968866
H           -2.23928501353042        2.64637491531827        0.30579786834268
C           -1.94859947054628        0.18788974317524        0.00169087342401
C           -1.65370124256594       -1.17307437147923       -0.39243433205142
C           -2.87100462579102       -1.73502562137023       -0.71930197506941
N           -3.89500201700397       -0.85725212467864       -0.53758313586065
C           -3.37172681481376        0.27476724229076       -0.09922671566292
N           -4.15242399210452        1.40057860954636        0.16411735962886
H           -5.12806090587549        1.18129348616929       -0.00114454927938
H           -4.02501814458487        1.76228659797396        1.10271859089533
H           -3.07857192816228       -2.73033748118177       -1.06737909092426
C           -0.33245853868128       -1.63434412042731       -0.28519368465086
C            0.67849577369536       -0.76820020022406        0.03874279962459
C            1.98051176813596       -1.32703385635800        0.38826352137987
N            1.95074139156128       -2.59548917422198        0.88113492375868
H            1.07643805160461       -2.97764095623598        1.19530551090426
H            2.79627398856510       -2.99469861926280        1.24988356007660
C            3.20857003410587       -0.75117204803131        0.20155002669488
H            4.08070152715184       -1.35362419869985        0.42717687858229
H           -0.13021004973485       -2.68094960931786       -0.46620016820884
H            1.11930267453760        2.66944898505961        0.23022651988491
H            5.32619592456669        0.00764296153018       -1.03525848026176
H            4.86613336669096        1.65735027286740       -1.27766952716073
