29
 energy: -50.380265351097 gnorm: 0.000730780421 xtb: 6.6.1 (8d0f1dd)
N            5.23456178249416        0.78507950173809       -0.46951388614576
C            4.20893093198187        0.30160402548168       -0.26712021071392
C            2.94831664697315       -0.26692236236398       -0.02836303636969
C            2.93460938627650       -1.54223745079942        0.59848892868071
N            2.01369275330583       -2.44039875557232        0.54191823782727
C            0.78823841188998       -2.31341776071278        0.02827435190746
C           -0.02143069375484       -1.19864274638355       -0.07657553913876
C           -1.41170706238205       -1.45113177430286       -0.23771529804074
C           -2.30247362928641       -0.43716329329127       -0.10440320958716
C           -1.86205926668100        0.91253325494512        0.19891306767302
C           -3.02003948288416        1.64731720347445        0.35992376202456
N           -4.13889388104357        0.89258957896243        0.16816357061507
C           -3.74587472364008       -0.33665266713787       -0.10594338206480
N           -4.61683295611675       -1.36362372666014       -0.28864439261359
H           -4.29232325489332       -2.17891554738437       -0.77898756916394
H           -5.57936737243239       -1.10141849466521       -0.42190670119541
H           -3.13882380591259        2.69086977652157        0.59161709684696
C           -0.48293604400111        1.21206999357715        0.21909917818164
N           -0.11732050023174        2.54114042278550        0.41087853267654
H            0.74714839983412        2.69220571392650        0.91061577287389
H           -0.87523025954784        3.10410382618335        0.76680019706437
C            0.44491192341231        0.19216640045035        0.00890858298828
C            1.81445092110886        0.51086606581094       -0.32989606959936
N            2.03744702337290        1.68560268835423       -0.94639740622753
H            2.97417865064113        1.93584114039833       -1.21975944971312
H            1.26822808175389        2.29392997587781       -1.17344871523625
H           -1.73235722190027       -2.47335491645755       -0.38448767784870
H            0.33709332438517       -3.27737191191057       -0.18732934719238
H            3.84372602337825       -1.84722433004574        1.10891608429137
