22
 energy: -45.107874255168 gnorm: 0.000820780784 xtb: 6.6.1 (8d0f1dd)
N           -5.61683412172075        0.01805820352438        0.05300146617592
C           -4.47220093984853        0.07727764895764        0.06037704449072
C           -3.06272422893829        0.16363542086173        0.08751230294116
C           -2.32741954923959       -0.85892428249933        0.72539017058682
N           -1.09012550300280       -1.14261093486488        0.44780438326709
C           -0.07952980842391       -0.44271099186077        0.05477991166560
C           -0.13798253558016        1.08120413259620        0.11213402298070
N           -1.20102429352393        1.62474018869693       -0.40360512762042
C           -2.41866643018587        1.20001983958944       -0.60575050729131
H           -2.98986241237677        1.79716812289286       -1.30836284372588
N            0.91347222707452        1.77122308002905        0.47434028292601
C            2.09604919077643        1.21365021284368        0.35258926338430
N            3.26710226807475        1.71408034038004        0.67835808765375
C            4.19260337514185        0.81109383304838        0.28622615678460
C            3.65611134447827       -0.36210867012833       -0.24092622405489
C            2.27773589075193       -0.16889220590762       -0.24609512131443
C            1.16601068859638       -0.99968154503375       -0.31832739391279
C            1.28130481762746       -2.38257806513016       -0.57839673821772
N            1.38503254144497       -3.49839163717771       -0.81982299999218
H            4.19399261815354       -1.22254472495438       -0.58516717012815
H            5.23465786139050        1.04302521267736        0.41765763458739
H           -2.84213212877254       -1.58719898053946        1.34081360501404
