28
 energy: -45.869532978074 gnorm: 0.000567543307 xtb: 6.6.1 (8d0f1dd)
N           -3.90552705840169       -2.27729417143321        0.00979223589517
C           -2.99729876089535       -1.23889273369444        0.02745089065603
C           -3.51777569555530        0.05395325997817        0.03040674420250
C           -2.80684492777760        1.25563530211077       -0.01489554580976
N           -1.50477095474967        1.48310879203019        0.02979988077118
C           -0.46671094118972        0.66952318513882        0.04411208330843
C            0.76554517945844        1.33220726393451        0.13934402279447
C            1.95364955090962        0.64136794020244        0.08858389352109
N            3.20587533586399        1.10894298827411        0.15428807292784
C            3.99643386721984        0.02075917001230        0.04523813846051
N            5.33842904296802        0.15758285207950        0.04049548319427
H            5.92440573257199       -0.65142996187593        0.14148313902919
H            5.71145501028714        1.06195237632353        0.27066477342655
C            3.27731348774615       -1.19255839168288       -0.09521040402734
C            1.94413070040739       -0.82785201186058       -0.06964301671409
C            0.73111270057206       -1.49535182874158       -0.13284377449251
C           -0.48284316797945       -0.81553700450739       -0.05918072096215
C           -1.64701686866545       -1.58786492970247       -0.04461767934875
H           -1.46894479680155       -2.65901949663401       -0.07923388191483
H            0.72240052494307       -2.57394136617228       -0.22799571494625
H            3.70415245551014       -2.17124213053117       -0.19728936884374
H            0.75577089585967        2.40626150562173        0.23260156046438
N           -3.53774851176046        2.42008853375591       -0.01475498000570
H           -4.48537922454294        2.40305009629057       -0.34931863953741
H           -3.00441556079014        3.25463819119870       -0.19263884283645
H           -4.59740615205844        0.14059921303319        0.06331015454845
H           -4.84485957723390       -2.07544835443876        0.30797891786662
H           -3.56515828101582       -3.19326902570990        0.24885893217229
