23
 energy: -44.058350079904 gnorm: 0.000868322181 xtb: 6.6.1 (8d0f1dd)
N            4.76281161102617        1.62273676193896       -0.95765725826600
C            3.99581993493437        0.84586085120343       -0.59745359263058
C            3.04920932555456       -0.07828504191134       -0.15898965675524
C            1.65208551225059        0.08414470483963       -0.12384683612118
C            1.15201273085698       -1.21792362492303        0.42690100710052
N            2.17045067824936       -2.03149027550058        0.69567308857149
C            3.27867714899216       -1.37709523295438        0.33920973124496
H            4.23958617251971       -1.84880748198273        0.45112282158441
N           -0.12188853741468       -1.48526357673498        0.57690612014123
C           -1.00720394035801       -0.55829265861615        0.23683189759250
N           -2.23172346196018       -0.99293816807871        0.07114773215994
C           -3.36158309428790       -0.33717627854247       -0.09116621515271
N           -4.36873225133456       -1.00226060273911       -0.67669455499931
H           -5.29278361552190       -0.60799569219094       -0.65388994149760
H           -4.23392960135651       -1.96974954835936       -0.91332706730521
N           -3.67020936119726        0.86996796756386        0.41235990861562
C           -2.82109779577596        1.84328405986839        0.56165323756635
C           -1.47568105324475        1.91738791353045        0.15905530345588
C           -0.59927808063608        0.86116310703993       -0.03175116563441
C            0.76245917670073        1.11217705115451       -0.28960204803561
H            1.08758843401761        2.11476473793834       -0.53686848248784
H           -1.04766911461474        2.91271080627981        0.10581693125909
H           -3.25344235329978        2.73587000757611        1.00334997969316
