27
 energy: -51.742726108633 gnorm: 0.000791723030 xtb: 6.6.1 (8d0f1dd)
N           -4.88633279694044       -1.29878478361507       -0.70049998675299
C           -4.09095433300966       -0.52358363705145       -0.40618731796891
C           -3.13585152938200        0.42708602723488       -0.04437604796364
C           -3.37595660588813        1.73077789054686        0.42422857877038
N           -2.26800083970265        2.42809643957805        0.70491482880665
C           -1.24293307892970        1.64005468613070        0.40007638374479
N            0.02843712187355        1.94670272284739        0.46548522494367
C            0.93874362928969        1.03886255658416        0.13569840704023
N            2.13909959558638        1.53473447288647       -0.05568507712359
C            3.32273315862521        0.98255864898098       -0.20362772782705
N            4.27619642337420        1.83874286554952       -0.63268822494776
H            4.01224073857210        2.80105851431446       -0.75371591303384
H            5.24561112343666        1.58148292029302       -0.65652345880259
C            3.70984578876312       -0.33682081002882        0.12480360641989
C            2.87435399656117       -1.43205854002872        0.25292462820713
N            3.41868513232197       -2.63785439852301        0.54716063308739
H            4.40577782434051       -2.73087441746971        0.69920159716866
H            2.84385398381023       -3.45865488720768        0.60350469597858
C            1.47296529101676       -1.43055107263285        0.00595655447837
C            0.58150335508848       -0.39163338000446       -0.06659736620701
C           -0.81064238993328       -0.69691525303418       -0.25095069693452
C           -1.21102070073659       -2.02412555157290       -0.51335279200568
N           -1.50517946667750       -3.11243847786320       -0.73125422116333
C           -1.73362655889120        0.30936752015311       -0.07877037698480
H            1.04129343997454       -2.42276379173592       -0.09267291470397
H            4.77204955911347       -0.51400191447724        0.23861466361847
H           -4.34296477915695        2.17948596354572        0.57108291655552
