25
 energy: -53.866862364688 gnorm: 0.000673832798 xtb: 6.6.1 (8d0f1dd)
N            4.06144907426152        1.74210036560342        0.82089499825956
C            3.32080534560151        0.92539259765861        0.50953341303651
C            2.49887272188214       -0.19140018017481        0.20689834445775
C            3.07546070506125       -1.44644322834797        0.64080024104173
N            2.82991323779091       -2.61902293800986        0.19253139233191
C            1.84508099846964       -2.93282722408722       -0.66100876721623
N            0.67822511776476       -2.39923609134475       -0.67197197580095
C            0.27507973715028       -1.19895040682988       -0.25837760333086
C           -1.08496985480819       -1.00553862178545       -0.01280324037005
C           -1.94574604653254       -2.12570733241754        0.04598802069799
N           -2.64036272441613       -3.03394491130595        0.11064430678897
C           -1.59057587397528        0.30077199185200        0.08758569374796
C           -0.71102934709940        1.44688832497928       -0.20764823692813
N           -1.42041354819134        2.60167098570322       -0.21147734738522
C           -2.65971269497606        2.27293575866121        0.05947500517572
C           -2.85120629034933        0.85713340484266        0.24270503559246
C           -4.06541818321156        0.22848527995591        0.52951376296387
N           -5.07554537309315       -0.25966622318893        0.77114010351863
H           -3.42775124659673        3.02197937990638        0.13047773225477
C            0.63971062783987        1.27830213913892       -0.41605156474178
C            1.43826265042428        2.37751304409571       -0.80511346709551
N            2.04717198046771        3.26479283655584       -1.19726518102542
C            1.19516429523957       -0.02954546374082       -0.22683656023833
H            1.99449763864532       -3.82564597137983       -1.25433748496724
H            3.84642848734421       -1.37976441784588        1.40256131813330
