22
 energy: -39.528955223343 gnorm: 0.000278501104 xtb: 6.6.1 (8d0f1dd)
N            4.76037828354586        0.03338065081092        0.03865102306425
C            3.42196600225378       -0.00149278196391       -0.01411220431724
C            2.64659111846510       -1.08296230769137       -0.47373830943658
C            1.31335736680880       -0.72958996420440       -0.34819162853899
C            1.27881981739976        0.67520702039250        0.19919396253913
C            2.57236558179090        1.06465996279558        0.41569734855754
H            2.90491213267385        2.00564994118013        0.80650584444075
N            0.14985229418337        1.37112915765653        0.32715782249520
C           -0.96406502866526        0.74796207725776        0.04695216204278
N           -2.01489828012265        1.39497113233369       -0.40369093607684
C           -3.24716050288837        0.98232794466589       -0.56051195735689
N           -3.91157044838355        0.05540874399567        0.10358713286937
C           -3.27430601597937       -0.92584874906087        0.71654924060041
N           -2.08555587120349       -1.39455766012737        0.43616984150394
C           -1.02761355072229       -0.77629339132144       -0.01719387477212
C            0.12857883134248       -1.43833462992454       -0.43134938011745
H            0.10254137315250       -2.49455010119152       -0.65812988356858
H           -3.86507495226907       -1.52803904132194        1.39856066765034
H           -3.84197417365969        1.58004715392369       -1.24523678230776
H            3.03099652327163       -2.02124657961884       -0.82580725910903
H            5.30562511624783       -0.74341004382935       -0.29131157800207
H            5.23409614305779        0.84908365144308        0.38447927453982
