25
 energy: -48.295087920063 gnorm: 0.000756210653 xtb: 6.6.1 (8d0f1dd)
N           -3.38419398531375       -3.01517556155644        0.57384906385364
C           -3.05282639750371       -1.93091177134419        0.39790317579100
C           -2.68177286019135       -0.58465946746376        0.16447282004568
C           -3.65875827781623        0.37202977325930        0.51062810309774
N           -3.74792145585783        1.61612889164222        0.12512728873685
C           -2.80342058080692        2.27719440942503       -0.52186070196013
N           -1.51781081955043        2.11795953222402       -0.43591042961423
C           -0.79870269623558        1.05958995677723       -0.13385703730206
N            0.47676381268503        1.27896939066423        0.13225848991304
C            1.31650085458699        0.26491998382872        0.06725199075138
C            0.90816997251123       -1.11453075218596       -0.33257405699295
C            2.04903620911390       -1.88908020089248       -0.41708797222320
C            3.15103600126840       -1.07936148203711       -0.06734817894123
N            4.42956375636985       -1.45511269039943       -0.01492074747755
H            4.70053442534924       -2.39733971799721       -0.23821378663952
H            5.13649075735396       -0.78787923074437        0.24901216364064
C            2.69633270947121        0.25125525911776        0.23907561973611
C            3.55215395334791        1.28375983167384        0.61794432858765
N            4.32554959327204        2.07663620448522        0.92664967904000
H            2.10322977644433       -2.92577706121907       -0.68978919472820
C           -0.45037529780393       -1.37911518935856       -0.43302334032230
C           -1.34624443268344       -0.33692182632131       -0.22284773980144
H           -0.80998689903419       -2.38729452580515       -0.58994812245090
H           -3.13808896583728        3.15517229455047       -1.06391148722994
H           -4.50447884453934        0.02065803857617        1.09424332208978
