30
 energy: -55.708631704810 gnorm: 0.000722832879 xtb: 6.6.1 (8d0f1dd)
N            5.45296410953974        1.28127752481544        0.01096216214107
C            4.33566990369445        1.01121960773525        0.00512802805072
C            2.95803543109434        0.69818368642884        0.00158680895198
C            2.09190961845702        1.80738192098157        0.03210188062735
C            0.68806871980523        1.77090490998791       -0.00252796109263
C           -0.24323725533656        0.74885433951772       -0.01429795134221
C           -1.59157443302909        1.17167337376614       -0.04734290390253
C           -2.61928066274430        0.27029128457311       -0.01728016396297
C           -2.32724037698392       -1.16985080584656        0.05593922786746
N           -3.45443028464216       -1.88513595702088        0.08911508979241
C           -4.45741594006716       -0.99853413580741        0.03942837089988
C           -4.03135058487143        0.33917652300609       -0.02596626158015
C           -4.81503070738757        1.48820129602768       -0.08733852908584
N           -5.44193480786421        2.45132587210893       -0.13970524367630
H           -5.47787770395773       -1.33974735782353        0.05276337992106
C           -1.01552764228363       -1.60170218823385        0.07258846992038
C            0.05170771138863       -0.70050414350887        0.02422141265496
C            1.35115315367449       -1.25863341104300       -0.00009128673033
C            1.39909297736681       -2.67804007343761        0.00748167127671
N            1.53395048909836       -3.81882433362165        0.01181274399211
C            2.64602006685333       -0.68225142823381       -0.03712415931893
N            3.70348655152305       -1.52895022175337       -0.10553732272740
H            4.64253884574447       -1.17013360913267       -0.10647924105810
H            3.56482636000365       -2.52456669749988       -0.10981956072556
H           -0.82861722941545       -2.66330547864465        0.11463987642180
H           -1.80558995691062        2.23081040515725       -0.08688238448830
H            0.24687595518838        2.76276511376069       -0.01464743256372
N            2.65122560265353        3.04284583853051        0.08547837707671
H            3.64972312582982        3.15795771604492        0.09275744647375
H            2.07154241847752        3.86208475516561        0.08950392228685
