36
 energy: -55.601544713599 gnorm: 0.000436057481 xtb: 6.6.1 (8d0f1dd)
N            5.05272178296170        0.14248565831546       -0.51017745390197
C            3.69733515651335        0.09719252458829       -0.25410723960111
C            3.02763196655471       -1.06613833091075       -0.52086258231449
C            1.70501585571556       -1.46624280637866       -0.18533501388577
N            1.52855518639450       -2.83394327806521       -0.28381093053213
H            0.58405337720389       -3.15926246403591       -0.43115991002000
H            2.23633075096600       -3.32338362446730       -0.80747602516927
C            0.62465446334462       -0.64644427767461        0.14555702223396
C           -0.67868576644560       -1.22380051357656        0.36697884846373
N           -0.82859961910898       -2.53616848705226        0.81533274051162
H           -0.13146378805082       -2.82493549628641        1.48730230413014
H           -1.77690519899466       -2.70757308846646        1.12832406567400
C           -1.80753677025794       -0.49941397529238        0.06507042208964
C           -1.71567846057099        0.90599894314645       -0.29461801768389
C           -0.47371860730534        1.53533772795518       -0.16879746090574
C            0.67164933877929        0.82288452377013        0.10368396676148
C            1.83972512918098        1.57683215652045        0.51728476015510
C            3.15697194441897        1.24587730964212        0.37427994732288
H            3.88464576846314        1.97336899037025        0.71646982837172
N            1.57019088420563        2.81065168559085        1.06535365903768
H            0.65958548092330        2.94381686779687        1.47195787407551
H            2.33116555651933        3.27668053338987        1.53201173341128
H           -0.42396223414757        2.61071159983437       -0.27160775483360
C           -3.00901046784301        1.37139560376491       -0.49598542793308
N           -3.39639482651361        2.68731004649201       -0.76873182342015
H           -2.68282627895308        3.21990566597735       -1.24645912456094
H           -4.28751561500954        2.74866700959250       -1.24186821681788
C           -3.90153275537965        0.29264558903848       -0.29000405673038
C           -3.18980762517902       -0.83794799052739        0.05986796289888
N           -3.71307709308909       -2.11946203191371        0.35989638111256
H           -3.38407752406988       -2.82295856504838       -0.29499005529337
H           -4.72683087947644       -2.09674656581092        0.33377311995671
H           -4.97372953176494        0.35779805774927       -0.37782502898902
H            3.62870190728394       -1.84915472477192       -0.97335461528842
H            5.47048215081172        1.05387914607571       -0.59645246787314
H            5.42311045262047       -0.55765626962980       -1.13124226835305
