33
 energy: -52.456563433499 gnorm: 0.000625940314 xtb: 6.6.1 (8d0f1dd)
N           -4.70757054925161       -0.96931261984005       -0.72367899815408
C           -3.43084381032909       -0.72606781120633       -0.31196959510525
N           -2.62221715138454       -1.75060819311514       -0.43898328663746
C           -1.34306755274169       -1.77937694087519       -0.05392965286281
C           -0.40305458195112       -0.79593075638529        0.15061959775178
C            0.96344787977730       -1.23251051671231        0.30966258925681
N            1.26568970146582       -2.52527512165881        0.66061183926440
H            2.22772634382457       -2.65240385381565        0.93923295433782
H            0.58949427352910       -3.02610749889543        1.21309469407007
C            1.97463298827587       -0.35138902407605       -0.00012742458489
C            1.69351346663555        1.03587019543887       -0.29809557763539
C            2.90543875178400        1.66535654451313       -0.52416059020101
C            3.93608112828932        0.71042737942538       -0.39696920333277
C            3.38981601164575       -0.51547231925397       -0.08364816053435
N            4.07465927963887       -1.72961669764335        0.13370517501814
H            3.75542106474494       -2.46254604472555       -0.49146666954459
H            5.07340072133300       -1.59966203397775        0.01500655772505
H            4.98598033689892        0.91419678659086       -0.52439854155272
H            3.07033248248477        2.70399252726679       -0.75494052078267
C            0.37056600759429        1.52455905760641       -0.19143923884851
N            0.18438387074487        2.90777974152145       -0.33026745944016
H           -0.68682126664027        3.16979037878403       -0.76991658019592
H            0.97845217916746        3.34515761241743       -0.77460823920643
C           -0.66657524200214        0.65132224726280        0.09110417337721
C           -1.96894421555684        1.13967365785837        0.49680198357368
N           -2.00032172556704        2.37439058918011        1.07794633213897
H           -2.84018073354979        2.65550341702058        1.55373160726245
H           -1.13058471945250        2.78824031867645        1.36777027793958
C           -3.18363043696259        0.51804892567383        0.31797735683224
H           -4.06302015127557        1.07470507467689        0.62230016231504
H           -0.98646221551885       -2.80554506957980       -0.03565284420455
H           -4.85661067830451       -1.81586820318456       -1.24478579908814
H           -5.35091307614669       -0.20892461866840       -0.84806833805144
