24
 energy: -38.977657699634 gnorm: 0.000583135607 xtb: 6.6.1 (8d0f1dd)
N            3.94183546583041        1.51641540077227        0.00798830597430
C            2.92601782247548        0.61301742042153       -0.00026717459608
N            3.31920563212880       -0.63396790607394       -0.01219256899076
C            2.53518347391420       -1.71676575363867       -0.04299575707632
C            1.17711769525840       -1.86286597101301       -0.02790136626115
C            0.12973545527384       -0.89749777134525       -0.00568784019464
N           -1.07336119445495       -1.41193404417451        0.02591356046974
C           -2.13931983371136       -0.60137962087372        0.02445755157968
C           -2.01041232426948        0.87269068729447       -0.02902727709043
C           -3.33908071839820        1.40144305984611       -0.02708890183246
C           -4.19818419403722        0.34409300535502        0.02759476003631
C           -3.47552881954428       -0.89439632803814        0.06067215473514
H           -3.91876757057171       -1.87019718761154        0.10617804002004
H           -5.27257944309852        0.40864455249682        0.04434088404563
H           -3.59006161695526        2.44508380054276       -0.06317109373543
C           -0.77238117757713        1.41648989326690       -0.05707310570557
C            0.37877223396359        0.55910129332712       -0.03468500473095
C            1.60397854929543        1.16595834416013       -0.03456619697201
H            1.58967332487369        2.25233623947626       -0.05800847434403
H           -0.61720957318089        2.48864896599209       -0.08836937540612
H            0.79851938728738       -2.87680679831583       -0.03356593211664
H            3.12587659927999       -2.62775005297868       -0.06834789766644
H            4.87479873956783        1.15632958262143        0.10689171146055
H            3.77520917734996        2.49333468879035        0.16497815729765
