26
 energy: -48.012245371276 gnorm: 0.000253716180 xtb: 6.6.1 (8d0f1dd)
N           -1.76527958856837       -4.07171070595718       -0.00035924714078
C           -1.77429017492750       -2.92440925493797       -0.00020684400175
C           -1.85715482231543       -1.50799924524779       -0.00039046778181
C           -3.18501150744087       -1.05595546815101       -0.00133047215002
N           -3.70190742772471        0.15195149687558       -0.00164459044619
C           -3.04302003665932        1.28810319440028       -0.00123110393688
C           -1.66991809937951        1.55614768207809       -0.00046691580545
C           -1.33970526027282        2.93718568268670       -0.00045293448107
N           -1.15153733458600        4.06809148881908       -0.00030315653872
C           -0.55038176644785        0.68825576300779        0.00027840353977
N            0.59998634941937        1.33276155799261        0.00090225243888
C            1.73676234363719        0.64953049239933        0.00174779898888
C            1.77090853446667       -0.84140384397167        0.00203376923666
C            3.09592622272905       -1.22415170898052        0.00298728255527
C            3.87912490188286       -0.04380389150713        0.00329300707310
N            5.21707501752290       -0.00306038590407        0.00418199852353
H            5.69861797627979        0.87909392630699        0.00435561343436
H            5.75446159394534       -0.85244467449710        0.00472257868156
C            3.03319759710167        1.10200715020322        0.00252186954129
H            3.35843816276943        2.12307672194821        0.00255193257340
H            3.47956932858315       -2.22660692571613        0.00342558491653
C            0.55869219129434       -1.51261586600841        0.00131750479676
C           -0.63523037440762       -0.79381868817633        0.00040549742081
H            0.53390677140174       -2.59409200622583        0.00145008307252
H           -3.69496458177877        2.15742651229075       -0.00161299983967
H           -3.94287097502476       -1.83544771082748       -0.00186339647097
