27
 energy: -53.322328208139 gnorm: 0.000683172914 xtb: 6.6.1 (8d0f1dd)
N           -3.85679705827977       -3.06195217261408       -0.11600154725530
C           -3.29033401930499       -2.07085019278223       -0.00110545437481
C           -2.65996871560928       -0.81377811198008        0.14740394866532
C           -3.49684377989675        0.18313777940057        0.77627124390936
N           -3.43451870493316        1.45355210133504        0.66411308376238
C           -2.51952636511134        2.15816330480227       -0.01439020290749
C           -1.20540389534512        1.83446141106411       -0.23031411049522
C           -0.43181833886810        2.84060228699049       -0.86287937697028
N            0.10802970798534        3.64644741666371       -1.47361121246804
C           -0.55391468412569        0.55684366755885        0.00049249214878
C            0.82268367381552        0.50700786152087        0.15023120953491
C            1.56510634603776        1.66877679366341        0.47054787166521
N            2.17628436041122        2.57267927325589        0.82021041575121
C            1.50956984858650       -0.72687024181003        0.04146866043481
C            0.76227872099985       -1.91958681265765       -0.33667712776277
C           -0.58777219765645       -1.88880268422655       -0.44215245180147
C           -1.30735333632267       -0.68450410403927       -0.13636678473833
H           -1.15143818285727       -2.78316452410372       -0.66590829257679
C            1.71683206115715       -2.99482464261845       -0.47396351449594
C            2.94312360541351       -2.50347675130122       -0.18709881625322
C            2.83919307039035       -1.08808097056349        0.14448880038778
C            3.93249850465646       -0.29541902690932        0.50052642113908
N            4.86309326792940        0.30986174222098        0.79566779318271
H            3.87570224056667       -3.03689281834686       -0.18942008910040
H            1.46462832594269       -3.99932410959354       -0.75333132267686
H           -2.86304093104863        3.14376203472368       -0.30646008703975
H           -4.31190588143331       -0.19562147905418        1.38564957463456
