25
 energy: -53.861529009185 gnorm: 0.000772548771 xtb: 6.6.1 (8d0f1dd)
N            3.56883073575984        3.20502790870888        0.07865547165406
C            3.09507654552310        2.16550827251936       -0.00059713488119
C            2.59821748638966        0.84300057359655       -0.12074532132227
C            3.50400641564649       -0.11882132881719       -0.67091104830928
N            3.49287913332728       -1.38940159112712       -0.48398530178294
C            2.57438155010365       -2.13418620007026        0.11354631784071
C            1.21395399033655       -1.88803359742141        0.20274959461785
C            0.45086462867534       -2.99741457020698        0.65173945133455
N           -0.07314294003484       -3.90539363100421        1.11418128237046
C            0.53931762013697       -0.63874871118907        0.00237336723656
C            1.24849702402986        0.63959977621103        0.15605232889970
N            0.59747813567500        1.78447067684223        0.46175714216174
C           -0.69094156726949        1.80747345347700        0.38138875608012
N           -1.48902746973956        2.88839109302158        0.59007433876373
C           -2.70462030409178        2.49668368984736        0.33036851534209
C           -2.80403869184262        1.10484597086610       -0.06648839706084
C           -3.98572896429529        0.43868138435692       -0.39854499468901
N           -4.97044315139139       -0.08511450863346       -0.66919038761003
C           -1.50679541654590        0.63545433865238       -0.02806320193683
C           -0.84729261584495       -0.59856935692733       -0.16182813998827
C           -1.60844492735537       -1.74248617069256       -0.50499115781661
N           -2.26298154505400       -2.60733455030903       -0.87364881282705
H           -3.53617995061162        3.17375568783745        0.41617444269507
H            2.93662784967255       -3.10611545518834        0.42972374771920
H            4.33908849890038        0.26324255385000       -1.24914062489184
