27
 energy: -56.549337442881 gnorm: 0.000741567651 xtb: 6.6.1 (8d0f1dd)
N           -6.11569956593499       -0.05824334071491       -0.58829972974648
C           -4.98522458494101       -0.19744323891165       -0.44406144763594
C           -3.59955997996329       -0.33065592326371       -0.23507609383089
C           -2.92293388898497       -1.44191314391944       -0.71276709729841
N           -1.72955267732013       -1.86061249840778       -0.35482493935143
C           -0.68481802560107       -1.23220366306212        0.09072886029055
N            0.36252515396964       -1.93233417957172        0.51856184230048
C            1.53733074665010       -1.37673248017088        0.39553001619757
N            2.70177207995522       -1.93507180077110        0.71838650635764
C            3.65157276019828       -1.07928631508749        0.32505905524899
N            4.94125849156214       -1.34162008319147        0.47783952928513
H            5.63869128054762       -0.68277452593852        0.17222408998024
H            5.21271867656908       -2.21594062702734        0.89685536354585
C            3.11524347256546        0.14313374558961       -0.25331699895089
C            3.90524880470683        1.19748514377536       -0.70213455350417
N            4.62257489065020        2.02218422138070       -1.05950712217275
C            1.74442640124842       -0.01950789552708       -0.21732816891618
C            0.63119322113984        0.81012463486194       -0.39553567033121
C            0.74756119418730        2.16922645045678       -0.75142696736105
N            0.82758594832803        3.27312183745611       -1.05176201563667
C           -0.61629431869221        0.26354727901332       -0.05460289288771
N           -1.64590066313012        1.01632325891640        0.24001264517370
C           -2.91128536677717        0.74460472390833        0.43882431298430
N           -3.61490543958461        1.61739909154310        1.17937174942229
H           -3.15166625878216        2.44577760446184        1.51344046358202
H           -4.61949766315021        1.56882627704579        1.20601714224333
H           -3.45234284211855       -2.13023749684488       -1.36357084839174
