30
 energy: -49.302337251644 gnorm: 0.000397563843 xtb: 6.6.1 (8d0f1dd)
N           -0.21082958319323       -3.04108854967394       -0.68466453536534
C           -0.27800269053775       -1.72735391526564       -0.32979706581775
C           -1.50140830732154       -1.09579867993172       -0.23816353127481
C           -1.60778963626285        0.31357073974363        0.06867861252871
C           -2.95816011509233        0.60854022810377        0.20296049889440
N           -3.53340542640517        1.85023271023207        0.51505487116786
H           -4.53819374099111        1.77598644294862        0.61382485718312
H           -3.13578066739792        2.28273988215098        1.34064604312387
C           -3.69497246283080       -0.57975006662983       -0.05419652121818
C           -2.82936264475979       -1.60527344925832       -0.32561256854087
H           -3.10844629751246       -2.62060927115499       -0.54427731409732
H           -4.76939371784515       -0.64397313781629       -0.02481301075152
C           -0.43961528438179        1.11548578663113        0.04345588411002
N           -0.56710606361388        2.50260905821014       -0.05120614695617
H            0.11845807827302        3.04261942338676        0.45552505365206
H           -1.51471080257594        2.82019505930016        0.08512838914127
C            0.78664303453442        0.49444763065848        0.00941418765613
C            2.00960590818075        1.23023874082167       -0.32580044961317
N            3.17102424384797        1.09826089193056        0.24653069503049
C            3.52703816595562        0.07699899352598        1.02581738388385
N            3.16955529372098       -1.16190514436405        0.95865843837252
C            2.07981475486620       -1.61843821246326        0.31214672922909
C            0.91057889130763       -0.96459308885680       -0.00697078747873
H            2.13193816982944       -2.69672672597635        0.19766587199285
H            4.34076696221416        0.29867417794546        1.71079041306639
N            1.91034199843568        2.15512452031476       -1.29502201824707
H            2.73141028827574        2.66870133791646       -1.56471338782835
H            1.00604401712652        2.39731257744550       -1.66218602635643
H           -1.06786912151062       -3.56537189541402       -0.64502909852148
H            0.63941425426648       -3.55762859396078       -0.54840738826611
