23
 energy: -44.048974120400 gnorm: 0.000434488187 xtb: 6.6.1 (8d0f1dd)
N            4.68474344530237        1.84697850755855       -0.47305572506763
C            3.91876459216319        1.00636427163118       -0.31395552628330
C            3.00751783155673       -0.03127004121686       -0.10676334627697
C            1.60617067112089        0.02835599516936       -0.18877171169338
C            1.16482378232070       -1.36005908350818        0.14221824553285
N            2.22052693338708       -2.13683268488908        0.34304441348809
C            3.30191532685748       -1.38876820597092        0.14255568031970
H            4.28170042996796       -1.82726170397972        0.20089972547907
N           -0.09487958721040       -1.56150545281832        0.38467809958709
C           -1.00478415929870       -0.61709683357910        0.23378288759217
C           -2.31783039705799       -1.03649636131141       -0.00549937301757
C           -3.51245630497593       -0.31220932250629       -0.04066064786355
N           -4.64691851755436       -1.00797720128669       -0.27893908768453
H           -5.53892183797714       -0.54716310878840       -0.27035549263676
H           -4.62048927592371       -2.00512920525391       -0.39571647702003
C           -3.63875005945920        1.07626337277486        0.17831638246674
C           -2.60982744943868        1.99744008680816        0.20908075307535
N           -1.32682179463982        1.85876403161973        0.00427116181615
C           -0.55469554734719        0.79430927374105        0.04463553904164
N            0.73558440426284        0.99631457666854       -0.13806054299576
H           -2.89458288006562        3.03991030287578        0.32204673950611
H           -4.64597287204123        1.46765932281851        0.21970403201573
H           -2.39869532994955       -2.09490197595801       -0.22460156168112
