29
 energy: -50.377297729463 gnorm: 0.000522043848 xtb: 6.6.1 (8d0f1dd)
N            5.05003854597118        0.88002300518050        0.52409783217777
C            4.03013528568084        0.40543121308127        0.27832281184045
C            2.77563865089177       -0.15570409825677       -0.00709830376747
C            2.76436730102967       -1.36372474206206       -0.75214570307610
N            1.84351852652497       -2.26239651526656       -0.79256120740798
C            0.63651272081269       -2.20951387449168       -0.21181203140891
C           -0.18024634790934       -1.13865470250747        0.05262990831545
C           -1.57905135898851       -1.39972350064216        0.32131028938813
N           -2.02526303066667       -2.62679597352492        0.66619761609202
H           -1.40473041094669       -3.36067224910222        0.95312986557951
H           -3.01215247638749       -2.75126745303250        0.80238013436183
C           -2.47517492967739       -0.36616283554941        0.11458021706144
C           -2.03047334827430        0.95472915691838       -0.26059408480968
C           -3.19048165707156        1.69019360195553       -0.43713229665093
N           -4.29420447394401        0.94046414266424       -0.20127380211624
C           -3.89108085216921       -0.27012188690108        0.12945402405772
H           -4.60735224119604       -1.04021926048489        0.35532306153240
H           -3.30682010047985        2.72286845507474       -0.71460543128098
C           -0.65274330925865        1.27555320711837       -0.25645281149453
N           -0.29574729853723        2.60808169312631       -0.42802291752053
H           -1.04687539377853        3.16841983334536       -0.80162293143884
H            0.58535144321979        2.77551265681994       -0.89167999070413
C            0.26923631641608        0.26464770819730       -0.02565258796023
C            1.63189550757343        0.58641380768170        0.33621319245117
N            1.82589271752362        1.73153031765767        1.01488058717362
H            2.75679782159317        1.99929805007202        1.29171081065845
H            1.04415375361556        2.32178195116099        1.24528285982608
H            0.23473472554061       -3.21032721279204       -0.09397392353758
H            3.67146540748762       -1.61394481724773       -1.29506405164473
