29
 energy: -50.377621389103 gnorm: 0.000649724619 xtb: 6.6.1 (8d0f1dd)
N           -5.46729856212090       -1.67595958616844        0.52725536968688
C           -4.51568301782694       -1.05883651927022        0.33197818925275
C           -3.36172324935266       -0.28993230749848        0.12333973877324
C           -3.54395268755236        1.06981880276566       -0.31659485876897
N           -2.69907264446102        2.01951345674567       -0.28379523923390
C           -1.39936905679490        2.00376927250907        0.08899916696039
C           -0.46810829692258        1.00533880266325       -0.03459712945580
C            0.93415104950497        1.37207623310583       -0.03870363967375
N            1.31464943773236        2.68195057035820       -0.11724790468483
H            2.26776317367342        2.83887562572882       -0.40500203146424
H            0.64699832517757        3.35047265554218       -0.46258871368687
C            1.88333063496856        0.37986504264707        0.02858257611169
C            1.51860622628896       -1.02468880944461       -0.04689152256197
C            2.74410914841960       -1.71394041112553       -0.08479013341261
N            2.94825711536350       -3.04928030523266       -0.24467829704599
H            2.19852647745053       -3.66987479532592        0.00902036663331
H            3.88427863628120       -3.37022889797128       -0.06054169062739
N            3.79641662611806       -0.86396230125737        0.00444396786510
C            3.30967316748688        0.37142039232188        0.07840770072611
N            4.14130317892175        1.46389925203130        0.17095690359595
H            3.85224506416498        2.17216119840443        0.83108980315951
H            5.10708472509926        1.18857981801268        0.28927515294806
C            0.18788339215222       -1.39135639227360       -0.07471621753408
C           -0.82314225705257       -0.43368462059095       -0.05165111392239
C           -2.13194019741855       -0.92394166529049        0.11875756253465
H           -2.18778357014339       -2.00199183031437        0.24232288719410
H           -0.08546448357385       -2.43719823589097       -0.10370478876156
H           -1.07816104974158        2.99434839336626        0.39341216442931
H           -4.51082118914324        1.31636944715329       -0.74777552473666
