23
 energy: -48.853894427138 gnorm: 0.000693290850 xtb: 6.6.1 (8d0f1dd)
N            5.76011093764938        0.15326370360624        0.38172893465919
C            4.62487466913590        0.00822199009224        0.27407546252135
C            3.23099321139897       -0.11958071067848        0.17011596854896
C            2.68139678207395       -1.39958697621814        0.15541816942486
N            1.45693264666113       -1.78153058626246       -0.05914561993297
C            0.29395132279435       -1.18370177651620       -0.06855729555152
N           -0.80219710415483       -1.83724497813221       -0.22145208105799
C           -2.00853225042478       -1.35469435265641       -0.30385958805627
N           -3.19711111842343       -1.90713268136656       -0.21021754170048
C           -4.10495697281537       -0.94528294213275       -0.04184993333994
C           -3.51532274605876        0.32297593701609        0.08993812718876
C           -4.14242542713486        1.55132850264780        0.32048083971636
N           -4.67023315979384        2.55001848574500        0.52316850245238
C           -2.14354479631900        0.11949089034656       -0.14887756072291
N           -1.04988212432911        0.80410968052890       -0.01430205785837
C            0.15641704915373        0.37396588294366       -0.02160366863290
N            1.17105968314582        1.18234926604278       -0.20687095635870
C            2.47361366749307        1.07801851307888       -0.07077024036253
N            3.14028569970083        2.22772052920869       -0.22603878320950
H            2.61711156637532        3.06653558498620       -0.41457619966362
H            4.14562137242934        2.25278887703457       -0.17600930205114
H           -5.15083921560341       -1.18200361126178       -0.00178084814068
H            3.36903994114817       -2.23319607044499        0.26662813083758
