29
 energy: -45.591313419372 gnorm: 0.000883232267 xtb: 6.6.1 (8d0f1dd)
N           -3.86932782400549       -2.30264742765131        0.08963581027147
C           -2.98113672553641       -1.24144573362564        0.01573801430821
C           -3.55775977669518        0.03624743033826        0.01244337428403
C           -2.93087628279698        1.26816920896750       -0.00162560691169
N           -3.74218373855088        2.38538657536934       -0.06615981585952
H           -3.32968486849575        3.26818515587588        0.18385188261609
H           -4.70426410371442        2.27268856059207        0.20585546912394
C           -1.54705879122575        1.51875955334384       -0.03068998247490
C           -0.43563488386981        0.69450929430729       -0.02355319803993
C            0.81515380116778        1.35033957861286       -0.05558418406402
C            1.99163012346900        0.65088154454256       -0.03021437454238
C            1.96905992665448       -0.81981185991398        0.02971068776427
C            3.29611888389303       -1.19828111659110        0.03957080423331
C            4.02976848885673        0.01811980460003       -0.01420998164000
N            5.37919626812945        0.13000066536076        0.02149790203777
H            5.76099158487966        1.03780975190363       -0.18157938771151
H            5.93867253564204       -0.67680909554506       -0.19183357919792
N            3.25625249363430        1.11358799622932       -0.05660760723852
H            3.71518765798945       -2.18515937610565        0.08002745706822
C            0.74318200137275       -1.47310999927943        0.05236743268007
C           -0.46106519839065       -0.77844090751765        0.02397140816924
C           -1.63199831226222       -1.55629827530818        0.02861351836424
H           -1.43497438544972       -2.62433091005951        0.04945877431065
H            0.72423164126926       -2.55453586856095        0.09143976825746
H            0.84230410586412        2.42949238084361       -0.09716744373157
H           -1.30750655853286        2.57752898619810       -0.06318912355868
H           -4.64225264721173        0.05700219012181        0.02219744913602
H           -4.81181761952567       -2.13166580364319       -0.21925954013787
H           -3.50817921895853       -3.21114218630524       -0.14906207131645
