24
 energy: -38.979118672662 gnorm: 0.000837899581 xtb: 6.6.1 (8d0f1dd)
N           -3.92721890470100       -1.53764347011387        0.01014920726309
C           -2.92266724974100       -0.63170578997741        0.00250975227077
N           -3.30144577795924        0.61266276504444        0.00116883155934
C           -2.47786612284278        1.68805450790438       -0.00428732724157
N           -1.20925264845906        1.84737440592486       -0.00358154251446
C           -0.20370110272884        0.92502929531436       -0.00100705819611
C            1.06015444014080        1.45431491850701        0.00278049194609
C            2.20310903531461        0.63437145089540        0.00288817880769
C            2.02852597897913       -0.82363570921412       -0.00255013490021
C            3.34734604459296       -1.40311864428604       -0.00245428384442
C            4.24064356785680       -0.38003220850504        0.00249692999997
C            3.54824347109690        0.88259702832024        0.00576389704056
H            4.02772270077086        1.84385041297332        0.00965536345492
H            5.31271975248283       -0.47432620285163        0.00385201301908
H            3.55644530265028       -2.45623908627232       -0.00573909292328
C            0.79265913107016       -1.36922917234936       -0.00656515461867
C           -0.38471754812832       -0.54195698985637       -0.00421598053825
C           -1.58598851526385       -1.18642148250451       -0.00331189037222
H           -1.55748372182244       -2.27172249349929       -0.00503033747401
H            0.65637292210346       -2.44347885847505       -0.01065963473738
H            1.16075464587741        2.52839460784101        0.00514559443795
H           -3.04654291661887        2.61671619427963       -0.00857132488054
H           -3.75654438957386       -2.52607591587146        0.00854121705221
H           -4.87071333539692       -1.19245447252820        0.01305935128944
