28
 energy: -52.274119444561 gnorm: 0.000814393952 xtb: 6.6.1 (8d0f1dd)
N           -3.09018896675326       -3.25164586815653        0.00013086369060
C           -2.92711107826857       -2.11647632663730        0.00026629134303
C           -2.82222442621471       -0.70041047799997        0.00051415397775
C           -4.08752153897359       -0.08747047695499        0.00143634544812
N           -4.44667392079324        1.17271691944819        0.00196694072226
C           -3.63901437044463        2.21439757188623        0.00175705689451
C           -2.25249971589938        2.29955251649198        0.00092661797886
C           -1.26064779647358        1.30951723243904        0.00005776868071
C            0.06357557018745        1.75737276619401       -0.00067175040622
C            1.12283105072076        0.87289564170535       -0.00153040467443
C            0.86307588801868       -0.56557282731869       -0.00171049192676
C            2.10051245630117       -1.22358987275832       -0.00249168556801
C            2.34561541816532       -2.59561812430634       -0.00234998121664
N            2.59847337693417       -3.71741120942447       -0.00462178214222
C            3.12369954079286       -0.22952061921811       -0.00305658140334
N            4.43717936470266       -0.46962713492542       -0.00392823919635
H            4.77780675690669       -1.41670289006106       -0.00432101289719
H            5.09308899951719        0.29356705002185       -0.00419366094018
C            2.51408055199244        1.05864720150546       -0.00256893614921
C            3.20921077068200        2.26545858129297       -0.00353537426208
N            3.80948941335545        3.24691049725010       -0.00142709091179
C           -0.44078411660444       -1.02728633805571       -0.00099685202128
C           -1.52049132104445       -0.14457568648015       -0.00012463524835
H           -0.62258773714287       -2.09263760969580       -0.00117373895925
H            0.26042281676995        2.82009395536295       -0.00057826270307
H           -1.86796271273213        3.31325968146184        0.00102127211737
H           -4.17798993492194        3.15680778905050        0.00235387137091
H           -4.93390874378005       -0.76940588881760        0.00177715720220
