29
 energy: -45.588248351266 gnorm: 0.000435805686 xtb: 6.6.1 (8d0f1dd)
N           -4.51962650180456       -0.53152125388805       -0.68543646285853
C           -3.23671175008028       -0.45800338722007       -0.24986175010303
N           -2.63633435026432       -1.64032179806385       -0.17332607825036
C           -1.37244859105374       -1.84266051874444        0.12528385608201
C           -0.24274979656334       -1.02355785355953        0.15286522256964
C            0.98093024664461       -1.71226954643757        0.26670561690921
C            2.17985814031186       -1.06286741423452        0.13803564747332
C            2.19325272719657        0.36433306767892       -0.14843083852365
C            3.52087208693837        0.73661476297308       -0.31037855955512
C            4.31983424362518       -0.40692928978306       -0.11529841542589
C            3.52240288886677       -1.49955078056369        0.15038798020218
H            3.85116973617286       -2.50578114766837        0.33413013969577
H            5.39518600487538       -0.41466577299089       -0.17289834255967
H            3.90664278809548        1.71847579240519       -0.52709290254326
C            0.98864204316241        1.08523027584664       -0.18481307397600
N            1.07597606990245        2.46438703445137       -0.42564868006471
H            1.99143770526725        2.71884181832729       -0.76889428638593
H            0.34043285287350        2.83564632681953       -1.01115997682805
C           -0.23388153128830        0.43996221708007        0.04403914915378
C           -1.42480747670897        1.19664080989169        0.31954111019629
N           -1.26794785502863        2.48069137966330        0.74099388761609
H           -2.06881138608201        2.96775469483568        1.10383243239470
H           -0.35084605722330        2.79089217854981        1.01773866468162
C           -2.74417818091916        0.78887549916470        0.15570003815729
H           -3.49275740223612        1.55880708255458        0.31061348137841
H            0.95833253514171       -2.78509730712723        0.40307353509071
H           -1.17581644658583       -2.89958805188307        0.29452232408664
H           -5.13595231407105        0.25782914874223       -0.62485084184975
H           -4.90275232246499       -1.44657931941949       -0.84222826156324
