25
 energy: -48.287274497177 gnorm: 0.000548157823 xtb: 6.6.1 (8d0f1dd)
N           -4.35360729230064       -2.32381395102776       -0.82728996229694
C           -3.80455590352675       -1.37124401797940       -0.49298597336126
C           -3.12814863846858       -0.22072574750413       -0.08981178166674
C           -1.75231887863722        0.02538461217769       -0.12599312758090
C           -1.61685583529042        1.41737999523895        0.40770455368256
N           -2.81676332453178        1.90670951458587        0.74963504751743
C           -3.69915477446870        0.96461864498866        0.44669549137937
H           -4.74894721806188        1.13277790918458        0.61509861636811
N           -0.47779863399102        2.04787744001740        0.45390150319953
C            0.62099676049448        1.41490506928636        0.03723224985989
N            1.61719639035614        2.20334375991093       -0.25844769232844
C            2.87289370253214        1.96642903093945       -0.53384675390973
C            3.62960762650516        0.85795685967143       -0.19862387670714
C            3.15061600918671       -0.41411377039563        0.15453790545932
N            4.05527460721072       -1.33657691396468        0.55247304525966
H            5.03048727151383       -1.09985784489564        0.59215266546376
H            3.78427322297767       -2.29174785872825        0.71448194443698
C            1.79976153043048       -0.83318063673516       -0.01634473749438
C            1.62136062074746       -2.23875884606947        0.03736730542461
N            1.53688809044829       -3.38262349453384        0.08586334015090
C            0.63056054591801       -0.06783887247850       -0.16724754836997
C           -0.60484884597323       -0.70277681135913       -0.35060843084923
H           -0.65141441172822       -1.75759231106471       -0.58798532428049
H            4.70621889638060        0.96820697011007       -0.22713160489157
H            3.38976639748047        2.81935290482482       -0.96119466126291
