25
 energy: -49.083058194502 gnorm: 0.000681446277 xtb: 6.6.1 (8d0f1dd)
N           -1.51269716776322       -3.20882496416247       -1.22818061821953
C           -1.68414071799885       -2.19938385531345       -0.71291826421103
C           -2.02041668736707       -0.91824283001046       -0.20273337313555
C           -3.37970138730764       -0.71417195910670       -0.06213682377039
N           -4.00539695650006        0.29955108895943        0.52637207289930
C           -3.57591061020373        1.50730436852968        0.65945822422618
C           -2.39892477333584        2.08917933741025        0.11978198591497
C           -1.19996435537233        1.46686848567216       -0.15000482291263
C           -0.09495106830524        2.32406520150579       -0.44447270827123
C            1.17402332072518        1.85203880133060       -0.35015482212993
N            2.35270469992793        2.53439959106391       -0.50205902919696
C            3.30058046240500        1.67882544878841       -0.24944971646656
C            2.81411744627194        0.35775292888914        0.09091442271983
C            3.62150878145896       -0.73695575047861        0.40527244634071
N            4.32303203128558       -1.60959535922603        0.65912710435202
C            1.43657330245127        0.45833037784624        0.01960927401619
C            0.35031775345013       -0.43446455168914        0.15033858348014
C            0.63285734739468       -1.77598042444132        0.50134120652022
N            0.91197474030806       -2.82086451305076        0.88060847829998
C           -0.95175551312092        0.02501611509289       -0.00306678692437
H            4.33700338099277        1.96204992100785       -0.29806845995489
H           -0.27483316560996        3.36701895534771       -0.65447890795998
H           -2.41102858716658        3.16889782812542        0.03169604977163
H           -4.24401783007408        2.16762704775075        1.20332291516513
H           -4.04102158995627       -1.52542687402770       -0.34691792505989
