24
 energy: -42.991622504548 gnorm: 0.000499742435 xtb: 6.6.1 (8d0f1dd)
N            4.98820236358836        0.41780691347411       -0.03776344292753
C            3.66475922561847        0.21702881025759       -0.00117680796726
N            2.84181531522525        1.15842117058769        0.47682685848769
C            1.60548542499511        0.64243171747326        0.35811632367502
C            1.66496001121600       -0.73412372349469       -0.20660515343302
C            2.99115393690146       -0.96493279645241       -0.45851951920674
H            3.45550042562980       -1.83162698946000       -0.88288747460367
N            0.57942344580891       -1.49684526429971       -0.34589093144213
C           -0.59651863280700       -0.96660892187440       -0.09772300988244
C           -1.66261798035157       -1.86420580269602        0.12042713882732
C           -2.98275390754716       -1.57295222967316        0.40870038364421
N           -3.66280804217192       -0.45566899194060        0.23907816526931
C           -3.12499914013929        0.70549534652980       -0.11673001132510
N           -3.97858775161906        1.61210014497474       -0.64075859868948
H           -3.67386819561758        2.56513558060369       -0.72800901211740
H           -4.95939295879932        1.39614469951180       -0.63833161497084
N           -1.89687315281357        1.14936567690510        0.12131988164258
C           -0.77074520603043        0.48570366279675        0.19502637829267
C            0.38134340941169        1.22337540302996        0.54612282535049
H            0.27123868479629        2.25599942845176        0.83805720310980
H           -3.60477210285970       -2.38906969744985        0.76347054258588
H           -1.35957465822267       -2.90194480634574        0.17473358361022
H            5.60776035348712       -0.28368712570205       -0.39962521620825
H            5.35382194650009        1.28150599749212        0.32236515807883
