35
 energy: -55.886581179235 gnorm: 0.000664424352 xtb: 6.6.1 (8d0f1dd)
N            4.90818750333241        0.43302383348951       -0.32457182811965
C            3.54823713340450        0.31150902264241       -0.15658668933188
C            2.75767395973438        1.38063095928364       -0.50698705767618
C            1.39785511017514        1.62799957636199       -0.21213210784418
N            1.05957599556481        2.95833627603951       -0.33868804407196
H            0.08826441613317        3.17488461308124       -0.50624810942245
H            1.72278613501607        3.53176842709316       -0.83410442998252
C            0.40202712563269        0.69445271536866        0.11582012098502
C           -0.93476377549002        1.14218753357352        0.35341446277863
N           -1.23371726204110        2.42291886582741        0.80495283812280
H           -0.56312682567546        2.81220989071082        1.45233066187542
H           -2.19064246143844        2.48657981562727        1.12930558123931
C           -1.98362870785004        0.30183060547505        0.03492980087281
C           -1.75684129887463       -1.05062329424813       -0.41691203331204
C           -3.01545787592820       -1.57079628277414       -0.66117693109896
N           -3.98814100887898       -0.65644871100295       -0.41925912096881
C           -3.39417868199983        0.45295905067946       -0.00216614851745
N           -4.12006258340186        1.60180677795298        0.35750992089369
H           -5.11006817339363        1.39617294069074        0.27846134920787
H           -3.89633107801237        2.39626996584748       -0.23357432376388
H           -3.29464272768965       -2.55431545798004       -0.99701172999872
C           -0.45417189724989       -1.58816828781470       -0.33777302122418
N           -0.32433122853917       -2.96583995052498       -0.54327646173355
H           -1.11398094428233       -3.34869306936347       -1.04113716369125
H            0.56145294021360       -3.25960484810361       -0.92837994899483
C            0.60654384946695       -0.76893762471851        0.02614495881091
C            1.82705788287756       -1.36945561077677        0.52461704374491
N            1.69427201473034       -2.59992770022676        1.10741040103936
H            2.46207239423069       -2.95184865192997        1.65222728903407
H            0.77049606445869       -2.92955085031730        1.32824634048442
C            3.10534068623893       -0.87240484228332        0.46442286813457
H            3.88547442204744       -1.50288248478873        0.87633222019265
H            3.28451430590101        2.21792872298143       -0.95365787659583
H            5.23882940164174        1.16321721373151       -0.93237755859722
H            5.45599865134559       -0.41048009740431       -0.31960884857066
