20
 energy: -40.875434894077 gnorm: 0.000960955338 xtb: 6.6.1 (8d0f1dd)
N            4.23752302277288        1.92267193463442        0.96694159180234
C            3.55132048445064        1.07482742916264        0.60862744453460
C            2.70016804299535        0.05954395219789        0.16532979732938
C            1.28400692748534        0.06169193242653        0.21650694785936
C            0.90810240472894       -1.27232659107329       -0.37020760561485
N            1.98688354320479       -1.92009322752702       -0.75127162217039
C            3.04932168347347       -1.17579899694683       -0.38708702981441
H            4.04405301848356       -1.54931771567385       -0.55201931595937
N           -0.34907043879783       -1.64161161399356       -0.47034393334966
C           -1.28720366696771       -0.80674883457071       -0.13425602827352
N           -2.41505590205159       -1.17579737049016        0.42630725608839
C           -3.50387696527431       -0.47986508555425        0.64642291364591
N           -3.96919396057944        0.57284094894694        0.00562924555362
C           -3.17246591477521        1.39339274900867       -0.65096090971615
N           -1.89806435533571        1.55114550112706       -0.40864918754634
C           -0.98995025706374        0.68984559372260       -0.07209326838992
C            0.32731008889590        1.04431894831122        0.27127984759974
H            0.58104490867288        2.08996508575608        0.37745149201894
H           -3.64017356521905        2.13637532440732       -1.28452218775029
H           -4.16473007389811       -0.90019376867053        1.39785555305291
