24
 energy: -48.583069300418 gnorm: 0.000604937348 xtb: 6.6.1 (8d0f1dd)
N           -2.69841408499154       -3.48134710426580        0.45016158424101
C           -2.49066333455204       -2.36545354167739        0.28821551698266
C           -2.29068175856403       -0.97773688227950        0.08144957557844
C           -3.40212608830037       -0.17199993743792        0.40365522590377
N           -3.65147241520362        1.05526908092976        0.03486813978487
C           -2.78214726193217        1.85397641362560       -0.55602725101657
N           -1.49081337054811        1.85903042199522       -0.40961362726983
C           -0.64889269645215        0.89724991679121       -0.10597850609654
C            0.66952560989331        1.26846031064411        0.22529606255538
C            0.97163663509097        2.61595984893983        0.51402864590920
N            1.22058065865868        3.70511483635465        0.76964542141817
C            1.67378464224440        0.30792828626898        0.13799146297474
C            1.34802649777870       -1.07889819782683       -0.29079011821931
N            2.48194342162614       -1.75508446241933       -0.37850301370369
C            3.42928111912362       -0.84703204733159       -0.02133659479741
N            4.71557603300528       -1.15859913984752        0.01809993221681
H            5.00372069565942       -2.09290238385259       -0.21551101474985
H            5.38207113509600       -0.45472912764610        0.28452130620935
N            2.98480187296525        0.39616259128916        0.29220564807688
C            0.02981897017418       -1.48075455778717       -0.44584765565677
C           -0.98076976585877       -0.55203042097293       -0.24457944548703
H           -0.20090112881587       -2.51640240664170       -0.64443323250223
H           -3.20206725487309        2.69898444359043       -1.08980187776764
H           -4.21079971322349       -0.64935763444451        0.94871684351506
