27
 energy: -46.145429325701 gnorm: 0.000752880615 xtb: 6.6.1 (8d0f1dd)
N            1.03929331568273        2.81254087437893       -0.47331822331737
C            0.81348476807275        1.50044496734731       -0.22398186171862
C            1.88131838314237        0.64702789179440       -0.00489614492085
C            1.69751762416319       -0.75351417205511        0.29108904280476
C            2.97139390572862       -1.25818975386795        0.47106804396185
N            3.91522752013829       -0.29456448296933        0.31413460563319
C            3.29082193284230        0.82908561096612        0.02980604344612
H            3.84716384434562        1.73588435204678       -0.13211098805173
H            3.27834750526826       -2.26279161578882        0.70295325818507
C            0.40148969929764       -1.32395016842492        0.23269698863232
N            0.27571493525242       -2.70984282060795        0.28356046036678
H           -0.58169891237454       -3.05358708941850        0.69122456217521
H            1.09489920574316       -3.16213588273417        0.66086831469330
C           -0.67581305972928       -0.48592867691947        0.05190930466450
C           -1.98516905074958       -1.01380200565108       -0.33799400430320
N           -3.14263515439591       -0.62929896951898        0.12339286615983
C           -3.36591097998443        0.50280587472845        0.78041427774358
N           -2.78783995644937        1.64990918745675        0.62861303175458
C           -1.58051917080592        1.84579962833917        0.08029301220746
C           -0.51971877670662        0.97088076099365       -0.04273894353061
H           -1.41830469731708        2.89907195125954       -0.12439342094799
H           -4.24859033043754        0.49475951047261        1.41303045601332
N           -1.99394356365610       -2.02710328543937       -1.21746863620254
H           -2.87698401264207       -2.39856083676079       -1.52367100000154
H           -1.13017083412016       -2.44186487749589       -1.52177837766030
H            1.99273241814698        3.10497228797299       -0.59267147954964
H            0.31406224514408        3.41605984599553       -0.81544511383772
