28
 energy: -57.840326403604 gnorm: 0.000499288041 xtb: 6.6.1 (8d0f1dd)
N            2.21510552364380        4.23168565137033       -0.05959624572300
C            2.18412179440748        3.08749632946587       -0.12694747396777
C            2.23065177862633        1.67607951532798       -0.21766369047582
C            3.45936411735747        1.17204906048878       -0.78789397227555
N            4.00779302163551        0.03595207910606       -0.59017784153181
C            3.52364504489654       -0.98568656858441        0.12243109897468
C            2.20587072448828       -1.32932478210170        0.29578257971745
C            1.98841039060801       -2.56343732578168        0.96055482925465
N            1.88326982029484       -3.50987712637772        1.59818473698441
C            1.03406560191373       -0.53073108654073       -0.00919898054176
C            1.09798290618211        0.92536113653861        0.06491030736478
C           -0.11951588087113        1.65073915415157        0.29730607874363
C           -1.31053497461745        1.01681495437476        0.18503999698977
C           -1.39032926869911       -0.39986738566744       -0.12573312480945
C           -2.73233644678258       -0.72962828954025       -0.24918708108399
C           -3.29328024472900       -1.97379629941811       -0.55840514805831
N           -3.79654868228003       -2.97246494808276       -0.81665379963149
C           -3.51298902991299        0.45800322905821       -0.00117242881678
C           -2.67704730773026        1.50870324300110        0.26138015317696
C           -3.02142212770037        2.83336928011047        0.55297394903567
N           -3.27694409778592        3.92612727553083        0.79292559083033
H           -4.58702247980350        0.48657752627773       -0.02538201553598
C           -0.19505803658077       -1.15518148045221       -0.16814816992817
C           -0.28148939092603       -2.54321304784965       -0.43470883599067
N           -0.37750775738957       -3.64172371243108       -0.74501659600924
H           -0.06831897904029        2.71622340036145        0.47190333542049
H            4.28685295592711       -1.66738257998246        0.47936391913846
H            4.01084439686744        1.85942748414620       -1.42198918685158
