26
 energy: -52.030463974954 gnorm: 0.000747611130 xtb: 6.6.1 (8d0f1dd)
N           -4.86281389195265       -1.20970756386638       -0.93212964715989
C           -4.07904083852693       -0.47047724596853       -0.53368296856409
C           -3.13250482342611        0.43171175884154       -0.04513642993746
C           -3.37645144861042        1.66119016251274        0.58333968951045
N           -2.26656185241524        2.31634140560136        0.96115751116350
C           -1.24063729550071        1.58644482675365        0.55402895741362
N            0.03174649223735        1.88646656568118        0.65730340732383
C            0.93598501511819        1.03055698494286        0.21445619869849
N            2.13028744196666        1.52666639725653       -0.01685128993825
C            3.27020815161376        0.91489561121411       -0.26070980764800
N            3.66034579496591       -0.29941122693222        0.15080078935372
C            2.86492480369524       -1.32159174004233        0.34011434719327
N            3.42843030981935       -2.43032917451873        0.84757735249033
H            2.89911017931959       -3.27214396496096        0.98485725103663
H            4.40087109566326       -2.40432315502448        1.10078825283392
C            1.47932073999006       -1.41177879604437       -0.03938701294548
C            0.57995183892314       -0.38666530000273       -0.10224187827556
C           -0.81037955501518       -0.66935199728714       -0.34948416459479
C           -1.19812173849252       -1.97294556999276       -0.72331447497755
N           -1.47852427247564       -3.04124331325571       -1.03564002277198
C           -1.72682962489054        0.32244820564475       -0.09550297811813
H            1.10561475205324       -2.41512650814409       -0.21753814643409
N            4.21537586100243        1.65026093733698       -0.86693151218238
H            4.02617716791222        2.62167941953694       -1.04185403905267
H            5.15298360244498        1.29494831686395       -0.92576486985459
H           -4.34325973241910        2.08925801765428        0.78245144713840
