25
 energy: -43.490671597532 gnorm: 0.000729505755 xtb: 6.6.1 (8d0f1dd)
N            5.05907761359694        1.62067829989705       -0.15316302247128
C            4.08151976740176        1.02076269039815       -0.09469456293712
C            2.88978019796797        0.27288797218821       -0.03571411186235
C            2.99128689479288       -1.10443065837723        0.27356104734313
N            2.10072020395263       -2.00929954038314        0.05166881757956
C            0.82396047893031       -1.91934552928029       -0.27840992752396
C           -0.08007378106508       -0.89647475674917       -0.03797115648508
C           -1.47434079704077       -1.20873717600332        0.00351077602916
N           -1.91061748391980       -2.48954954969345        0.03903890010367
H           -2.89800730070388       -2.64676375214146        0.13366248000038
H           -1.29030778935392       -3.25838270157483        0.21376704365712
C           -2.40214225154486       -0.16866624878912        0.02214088819795
C           -1.96328876539669        1.21862579705997        0.02162386114680
C           -3.15170572381022        1.96515623233740        0.06213831493433
N           -4.22328456421239        1.17202444345884        0.07471401391853
C           -3.79980001917115       -0.09767516517345        0.05171530293319
H           -4.51633685746872       -0.89952797430437        0.04757610733447
H           -3.25874693307243        3.03342555477393        0.08314852459678
C           -0.61949936407903        1.52909519575984       -0.00667475366158
C            0.35367702442591        0.52609260829826       -0.00594946194980
C            1.67760252247379        0.96039930407231       -0.11732418258031
H            1.78831553957904        2.03667048753999       -0.20759619166935
H           -0.30750670640670        2.56386845520742       -0.01530907204709
H            0.45186000397615       -2.85094944191677       -0.69633127639257
H            3.92271599154792       -1.46692362650455        0.69769282170616
