24
 energy: -38.973337539034 gnorm: 0.000896245311 xtb: 6.6.1 (8d0f1dd)
N           -4.80984412043234       -0.09311196393917       -0.01430570412576
C           -3.46352397438140       -0.02115664372960       -0.02708914511610
C           -2.71063310847961        1.17162851761572       -0.02031650053864
C           -1.37200955807719        0.81916225303551       -0.01086083437901
C           -1.30360043958943       -0.67022522221307       -0.01106031223569
N           -0.16093511882972       -1.33844921874853       -0.00735507589848
C            0.98693738917015       -0.68721029389669       -0.00304162782931
N            2.02487701829021       -1.51508130891513       -0.00089549203123
C            3.30834129530470       -1.29047525265945        0.00263262273304
C            4.04536066686412       -0.10057359058907        0.00541968986343
C            3.54056724240845        1.18660157063276        0.00623863403229
C            2.20757526412924        1.57443984273080        0.00374691143575
C            1.03761626118854        0.81469023957084       -0.00101918860118
C           -0.17807600026576        1.50881895148810       -0.00484747836306
H           -0.16668385383301        2.59306753831792       -0.00351271287742
H            2.04305611072566        2.64830363190227        0.00495108199741
H            4.26559501054480        1.99173216131358        0.00892971398920
H            5.12254944871066       -0.20758868664277        0.00716835555694
H            3.89088693508034       -2.20963827326962        0.00295604483142
C           -2.59668627124067       -1.14443649674376       -0.01966223140877
H           -2.90448238290843       -2.17132595179819       -0.02179613243411
H           -3.11691530810283        2.16607335244947       -0.02303033895062
H           -5.26240980828535       -0.98431355789537       -0.11272971653828
H           -5.36065292039111        0.74079931868345       -0.11545170061187
