24
 energy: -42.973149217393 gnorm: 0.000843328634 xtb: 6.6.1 (8d0f1dd)
N            3.40898466858413        2.28938386232443       -0.24996949756269
C            2.55080233647027        1.24720414979019       -0.05101909495594
C            3.10295284398679       -0.02613659889793        0.06324490805566
C            2.40788859795030       -1.24619112703107        0.07624670752325
N            1.13045909736406       -1.47784946502834       -0.15011613637455
C            0.06751967625444       -0.70829910145907       -0.07392550152359
N           -1.08963710163493       -1.29951947021015       -0.29999664622551
C           -2.22290367851582       -0.64771749650480       -0.33190159283301
N           -3.45637063970295       -1.09402876595497       -0.34590942028596
C           -4.26521580942375       -0.04075649563173       -0.07570547057132
C           -3.58041071097983        1.11283916158969        0.25300190060713
C           -2.22866047542515        0.80812348890853        0.03641832767939
N           -1.09884531647850        1.37333216836402        0.33606468427619
C            0.06518481552687        0.76251616200448        0.17332860619901
C            1.18762090235659        1.57148738275885        0.00602917922379
H            0.95005820792156        2.61791769964684       -0.15042718717282
H           -3.98672167859205        2.06899142081307        0.51598429555881
H           -5.33057596063508       -0.18536105998790       -0.09713157358406
N            3.12699018640657       -2.38325355154724        0.26841767584160
H            4.12852768152228       -2.37462574846769        0.19889098455805
H            2.63875804967333       -3.25116706432674        0.12711851444322
H            4.18345971348399       -0.09164583067194        0.05601430648392
H            3.06832604529155        3.22951986746600       -0.15671299993335
H            4.39547318609534        2.14201611115336       -0.13248579732721
