29
 energy: -45.569893243892 gnorm: 0.000967274996 xtb: 6.6.1 (8d0f1dd)
N            0.20171137050402        2.97845925832027       -0.02249820291377
C            0.04705682124461        1.59939762680431       -0.05286637558588
C           -1.26947521014481        1.07729308401640       -0.16786676105659
C           -1.48750727238730       -0.34335978368191       -0.01756869323640
C           -2.92053624944538       -0.48555208274666       -0.09247798684252
N           -3.50932010192786        0.67882189043393       -0.24035207872636
C           -2.52425922956281        1.63065632592558       -0.27486395663080
H           -2.80940376227928        2.66202779447144       -0.37958338310768
N           -3.62288961994924       -1.67764761159810        0.00548171377254
H           -4.61328436979103       -1.51642192240725       -0.12862661175107
H           -3.28021842642259       -2.40708898387750       -0.60675619649327
C           -0.46174263204663       -1.21955968552438        0.21058912149038
N           -0.70911933119300       -2.54078858381949        0.47815941237952
H            0.00042180071427       -3.05333517641497        0.97612211503211
H           -1.65625402239944       -2.73421887927003        0.76819220851175
C            0.90036655387904       -0.72586197291318        0.04965737223813
C            1.85572609687947       -1.65491950865517       -0.23735886559106
C            3.25025302123319       -1.50684868345238       -0.52263889010968
C            4.04182098144808       -0.45119698395224       -0.24390702887609
C            3.64292459226589        0.78844552720770        0.34998910171417
C            2.39126351672225        1.28358733980342        0.45788642259950
C            1.11100891673932        0.73103959437190        0.09799152081747
H            2.31515333508269        2.27109579581091        0.90100358049303
H            4.45565092197000        1.41261148610413        0.69940074959781
H            5.09912853184279       -0.54211119187691       -0.46126560458000
H            3.71568333632834       -2.38404683107802       -0.95486695784880
H            1.51675182748654       -2.67945885235193       -0.33334211062502
H           -0.61879931324853        3.48177754636110       -0.31932206050034
H            1.05700825075783        3.34342072878668       -0.40912956226899
