25
 energy: -42.696866309079 gnorm: 0.000570297579 xtb: 6.6.1 (8d0f1dd)
N           -3.29810552242082       -2.38455289400562       -0.13890699903734
C           -2.50462739889281       -1.27760346842959       -0.05037463378081
C           -3.10755322270524       -0.03573740011438       -0.05596825999752
C           -2.48212206405104        1.22892493946157        0.06085190254018
N           -1.21381744689602        1.54878496470570       -0.00946453997729
C           -0.11430387804519        0.79986209255542       -0.01738618200802
C            1.08040433176424        1.49433311882077       -0.20838934269828
C            2.28239619663543        0.81516200640501       -0.14108047193914
C            3.63233579626593        1.11338268245520       -0.19570964763509
C            4.29189870167777       -0.09865141021176        0.07344787537962
N            3.48406588841179       -1.13198832167974        0.31451928819564
C            2.24001440772121       -0.64399560097462        0.19546844623791
N            1.13213108056624       -1.31249892882383        0.34537865065895
C           -0.04352576557991       -0.67038192830892        0.18080725442834
C           -1.12117000066239       -1.52526333272415        0.13120227155351
H           -0.83872721302899       -2.56943131023472        0.20410127134994
H            5.35885669475514       -0.24707087647820        0.10354936343591
H            4.09537430108788        2.05809547823328       -0.40492385721759
H            1.03316875850986        2.56272551666793       -0.36517401943432
N           -3.30966288263252        2.31426692943999        0.12966009873582
H           -2.86693821091712        3.20017558923338        0.30216400310994
H           -4.27005017482531        2.20331924569674        0.39932579584870
H           -4.18564945655741       -0.01584820164709       -0.16251186067124
H           -2.87021655337202       -3.28226364929244       -0.27828457188239
H           -4.26142108710871       -2.28248958405012       -0.40336749039546
