25
 energy: -53.084858127283 gnorm: 0.000820312646 xtb: 6.6.1 (8d0f1dd)
N           -4.76238583289532       -0.64972582504417        1.12922657222442
C           -3.92045506909472       -0.01305657233419        0.67743823367303
C           -2.91932802690602        0.79143211692408        0.12997373368892
C           -3.12211379630204        2.08878544418503       -0.47270913571192
N           -2.02670985994860        2.65693937844210       -0.90503247834196
C           -1.01651732152647        1.79769229667922       -0.61508317354448
N            0.24412563174775        2.02361656380947       -0.78934937913785
C            1.11467754627510        1.09623678093310       -0.33947121201821
N            2.30527939105361        1.54478040175195       -0.10212400550300
C            3.41112217483209        0.89275236539693        0.24254049457486
N            3.77793321879910       -0.28610043391887       -0.25767270887226
C            2.95441461657526       -1.24347903341126       -0.58968070360394
C            1.57583708915165       -1.35730419164788       -0.32837701542998
C            1.05827055446719       -2.65692282923707       -0.55813864089357
N            0.72053677930525       -3.72196059124492       -0.81380144853088
C            0.67624547084119       -0.29833769795852       -0.05440643961147
C           -0.67734296975784       -0.50429960502200        0.24225685108612
C           -1.16797892634488       -1.73185327682581        0.74379804516067
N           -1.59275255117015       -2.68024668775752        1.22746005720789
C           -1.55909418319920        0.56532115218007        0.03336188350135
H            3.43689454534637       -2.09913489733341       -1.05107455218473
N            4.30042784314610        1.55034933480740        0.99021044951164
H            4.11990962105443        2.50664297710133        1.24388926495443
H            5.21114035057796        1.14901014739028        1.13437459794266
H           -4.07555913852659        2.57615299613831       -0.57964354363649
