23
 energy: -44.062429050330 gnorm: 0.000587789236 xtb: 6.6.1 (8d0f1dd)
N            2.28852596486533        3.42707826140783        0.00016463315119
C            2.16716630642706        2.28645385094514       -0.00020768087082
C            2.09526427696023        0.86989951203637       -0.00050224050018
C            3.36470742470902        0.26242444607808       -0.00171608837330
N            3.71265065794386       -0.99862112442090       -0.00285706294991
C            2.87754180258077       -2.03007260530647       -0.00285709438877
N            1.57855649146800       -2.13681831856778       -0.00083886710367
C            0.62226269388323       -1.20989118412935        0.00104915516974
C           -0.66444670236511       -1.73911983893182        0.00324008098223
C           -1.76442111849741       -0.90122799053349        0.00475629250506
N           -3.06790068502074       -1.14879743391648        0.00667717262634
C           -3.62704365562220        0.08788871897594        0.00725668401086
N           -4.94207916337888        0.26131613849432        0.00914426201945
H           -5.54489676001702       -0.54272739586757        0.01016511323076
H           -5.31452566640359        1.19473969506979        0.00959519734115
N           -2.76928206136011        1.14205772751141        0.00579718471098
C           -1.57425600590569        0.56924870808741        0.00415551589841
C           -0.29873468539826        1.10987737308629        0.00219818708306
C            0.81103862165089        0.27528654168338        0.00073032895430
H           -0.17612214820241        2.18290833475441        0.00191083169058
H           -0.77670134078843       -2.81119406065549        0.00349508052566
H            3.39156986035855       -2.98908783116464       -0.00458292967978
H            4.21227213391291        0.94401848776363       -0.00191693533333
