24
 energy: -48.566084851365 gnorm: 0.000671228601 xtb: 6.6.1 (8d0f1dd)
N           -1.51997817817455       -4.01880796316309        0.44124578211936
C           -1.62823673312539       -2.89456747091999        0.24407652124035
C           -1.80956127808589       -1.51280260841223       -0.01127725945857
C           -3.12085544010475       -1.10675593414884       -0.21911123772962
N           -3.66092955314215        0.09539502506806       -0.31536300135984
C           -3.04137035349542        1.23732124250326       -0.13116338463155
C           -1.68655470594114        1.55145835254073        0.01101070889624
C           -1.40729638168536        2.91222494173633        0.29055227505783
N           -1.23049993061997        4.02054953880070        0.52294180683665
C           -0.54757272785909        0.71209171437123       -0.12647723066044
N            0.62362577452334        1.33247823868831       -0.13694218970134
C            1.73486232194595        0.66435783218620       -0.00958490256701
C            1.68213322819764       -0.82877309686228        0.13710125308664
C            2.98603639259285       -1.24391152034522        0.05065322105001
C            3.74924689344456       -0.04096368010037       -0.04125286331128
N            5.07711127797832        0.05364524940763       -0.09909178236851
H            5.65761775316794       -0.76539342251149       -0.07205953707991
H            5.49118133847265        0.96755043379017       -0.16929142671046
N            2.98311084504265        1.06922420884444       -0.13313012113866
H            3.36494474513725       -2.24519440621024        0.06460823921422
N            0.51119870968857       -1.43561556051959        0.08637849169059
C           -0.60009005876260       -0.74932756953043       -0.06092527593689
H           -3.72140363138600        2.08497125869208       -0.09202730508339
H           -3.85892271141065       -1.90277690480395       -0.27771169055580
