24
 energy: -48.567261001197 gnorm: 0.000815385492 xtb: 6.6.1 (8d0f1dd)
N           -5.11631613254569       -1.23806982387025       -0.46477310266895
C           -3.99146906187823       -1.05503188157620       -0.31628587868357
C           -2.61541852017126       -0.80010110881285       -0.15896117557077
C           -1.78282373220492       -1.91402122936082       -0.03438190574301
N           -0.51965095758567       -2.00711535155029        0.24815345721330
C            0.47320317068053       -1.14808459392314        0.15917945894775
N            1.68294870892744       -1.56623326557824        0.42696061135381
C            2.75740042618918       -0.83670295644789        0.39273540791948
N            4.02469972413353       -1.14454423075734        0.39206175254844
C            4.72797671335300       -0.05917266870212        0.00384458480969
C            3.92126149252393        0.99010651742045       -0.40153938933642
C            2.61665066296475        0.58831077600197       -0.10180825363579
N            1.41803067960482        0.98409012157333       -0.37121219964459
C            0.32620068707049        0.30423801690725       -0.17966606056147
C           -0.89183475038883        1.01732450445508        0.01515144551506
C           -0.70629739261419        2.38904531711625        0.29192226629966
N           -0.58968066741639        3.51209548742323        0.50485096677574
C           -2.22427237779715        0.56484110559536       -0.00613988308146
N           -3.20330987463299        1.47659973266932        0.12396693286843
H           -2.98162273895591        2.45410827630758        0.22183291521555
H           -4.16776192110929        1.18816138499229        0.09845997118990
H            4.21658414299414        1.95211487147108       -0.76948798812572
H            5.80109367786539       -0.10329253902789        0.00184591703532
H           -2.27271147740678       -2.88224123122346       -0.09361782624403
