26
 energy: -42.411714113030 gnorm: 0.000597420913 xtb: 6.6.1 (8d0f1dd)
N           -3.07526692580033       -2.44228870552102       -0.07754309425265
C           -2.60456458069924       -1.15352294263992       -0.06999081009386
C           -3.43073283909828        0.00571417907119       -0.04960561969565
C           -2.64892823098996        1.13620145657713        0.02852677885304
N           -3.07133902141692        2.43905143911330        0.13916989646618
H           -4.02140626847627        2.61985468384673       -0.14328430162107
H           -2.40915973306957        3.14381269040659       -0.14265978316706
C           -1.27099700690953        0.71700461420297        0.05812088281081
C           -1.27283969866255       -0.74639045518675       -0.00520879465563
C           -0.06027269172482       -1.42028741810962        0.07467664834836
C            1.14377408166420       -0.73835522359533        0.08978331008736
C            2.33451231096840       -1.46306835793026        0.38936054403580
N            3.57349479195333       -1.16232972157460        0.18680291290297
C            3.99407940980255       -0.01511795800484       -0.39281544578324
N            3.53965556917851        1.17867694747260       -0.29079896347800
C            2.29011444934379        1.50865391540828        0.11008566459675
C            1.15076610084755        0.73676993838446        0.08340496562728
C           -0.10798608299693        1.40717239294035        0.13652834853024
H           -0.09603515385686        2.48800058264182        0.19503667971753
H            2.18453103467170        2.57237582603333        0.29742283153633
H            4.92751818988072       -0.12588285347090       -0.93959246687339
H            2.19083690699945       -2.44756261910710        0.83332059137787
H           -0.04303700710172       -2.50158827348732        0.12231982183689
H           -4.50552230557892       -0.01431452816802       -0.08990075909324
H           -4.02117454290073       -2.57205296263744       -0.39734155704468
H           -2.42573968512726       -3.15476335296570       -0.36739837126910
