22
 energy: -45.115214431714 gnorm: 0.000867880850 xtb: 6.6.1 (8d0f1dd)
N           -3.11950915137862       -2.97217606207985       -0.37796814941456
C           -2.66165725185847       -1.92992066093519       -0.24771552400960
C           -2.15728837972783       -0.61455593581910       -0.07424571607856
C           -3.06402348501500        0.41570352314263       -0.43066583283033
N           -3.04858906980949        1.65960781564775       -0.05102420620340
C           -2.04770495582041        2.26016195924619        0.56474254030227
N           -0.78470016035135        1.99593635681145        0.40338231310541
C           -0.16758577045707        0.88117272953315        0.10291415771918
C            1.20145503445287        0.96576972881873       -0.23855935232622
C            1.77134095797223        2.22652286184583       -0.52383605237462
N            2.22053137642774        3.24940118460892       -0.77616015600856
C            1.97461133826019       -0.18447140742288       -0.15631208786398
C            1.36639849039404       -1.47279351877941        0.28535328724713
N            2.35157391669586       -2.36587966273403        0.36776480016050
C            3.44194947591313       -1.68112671875853        0.00156861137205
N            3.28039169580653       -0.38886338330389       -0.31056157424762
H            4.40922900544962       -2.14757800647996       -0.03883828361085
C            0.00281375260220       -1.59262819693844        0.46673201250351
C           -0.79844777971137       -0.47065962480431        0.25870815416084
H           -0.43708540116363       -2.55218238666664        0.69403070163115
H           -2.28767568324072        3.16798682675175        1.10454374388809
H           -3.93222261563985        0.12778780891630       -1.01470562802142
