21
 energy: -45.386898955533 gnorm: 0.000571349893 xtb: 6.6.1 (8d0f1dd)
N           -5.62758164629339        0.01107000819335        0.15673385304471
C           -4.48321712750328        0.06711330256451        0.12640173639106
C           -3.07414902380515        0.15726325434808        0.11153987813742
C           -2.31238445034321       -0.89125726541343        0.66464772531741
N           -1.07894143721181       -1.14236697105926        0.33931565282624
C           -0.07627140047785       -0.41246344496444       -0.01139175136580
C           -0.15548660953126        1.10110431708121        0.10365037302926
N           -1.23358020140633        1.64419029338768       -0.39446786603569
C           -2.45418842092199        1.22632864327216       -0.56221036627176
H           -3.04849178647432        1.83831887848920       -1.23280656457104
N            0.89177670326782        1.78189849523518        0.47591724341529
C            2.07958151832296        1.24849637257304        0.32363847111873
N            3.26866581451412        1.66839742638012        0.69811904888441
C            4.12113316711147        0.74046436133569        0.21865773003819
N            3.58562129271008       -0.33449341478764       -0.34762596754603
C            2.27242081405364       -0.10516557467862       -0.32818091694042
C            1.17935588431392       -0.95031483805754       -0.40109364119962
C            1.30505888027409       -2.33718402337807       -0.64268281481969
N            1.38922192266007       -3.45741406437664       -0.86424151176288
H            5.18437064505519        0.85731475008715        0.31801455328344
H           -2.80174071061504       -1.66423386103169        1.24483545892661
