28
 energy: -45.870607763449 gnorm: 0.000667879038 xtb: 6.6.1 (8d0f1dd)
N           -3.79666297791058       -2.32413123507582        0.08066346431382
C           -2.94436706100315       -1.24253173066070        0.01352264902266
C           -3.52550368400525        0.01424083185926       -0.00168628647408
C           -2.90588511863132        1.27042870546708       -0.01209699313395
N           -3.74705146736410        2.36018173245384       -0.08576575591721
H           -3.34863803650045        3.26128631414336        0.11622562007404
H           -4.70545813350263        2.23589249565476        0.19287445770217
C           -1.54417253256355        1.53610472548732       -0.02407057244981
C           -0.40714150073527        0.71461561622091       -0.01339718755596
N            0.72335998446358        1.40875085394345       -0.03427841287111
C            1.88243372888696        0.75396438553806       -0.01481515557895
C            1.96794259221125       -0.72314463692015        0.03626464328989
N            3.25250880729771       -1.12849089758785        0.05818308105608
C            3.97205219358320        0.00217363424480        0.02088867387059
N            5.32051591385138       -0.04484542179601       -0.00974784405253
H            5.84855209564490        0.79304116343397        0.15552654083723
H            5.75641046954843       -0.93458764000280        0.15944999776876
C            3.18615855931708        1.19066852188643       -0.02496836007511
H            3.55989735363572        2.19404576977607       -0.06034608468167
C            0.80629314920601       -1.44023243707768        0.05726672833123
C           -0.43560934351153       -0.75905290301147        0.02870253094898
C           -1.57224084876972       -1.54693669939884        0.03575053352836
H           -1.36812028954195       -2.61409716645062        0.06424669263016
H            0.82176796560100       -2.52105102876264        0.09359413548476
H           -1.27536114140131        2.58639645416228       -0.04700303415486
H           -4.61019666911067        0.03061461583986       -0.00738305632637
H           -3.42198231110159       -3.22873621622136       -0.14887547352370
H           -4.75955213909413       -2.17790847664556       -0.17028377356345
