28
 energy: -45.882829606864 gnorm: 0.000474504532 xtb: 6.6.1 (8d0f1dd)
N            3.79690036873204        2.34266692309219        0.07890700622418
C            2.95170736509333        1.25466589512279        0.00996607876340
C            3.55423031740038        0.00008391158320       -0.00304735289634
C            2.95207285134348       -1.25467745930426       -0.01458968751917
N            3.79748354339616       -2.34247423175255       -0.08531898203177
H            3.41298735850436       -3.24461153990118        0.13788073278693
H            4.75854787749453       -2.20602870098728        0.17778528482223
C            1.58376278215644       -1.53647114787967       -0.03283968581530
C            0.44261272079591       -0.73691945918329       -0.02378105984648
C           -0.78297518017233       -1.42050664022164       -0.05221354124757
C           -1.97508163346302       -0.73599167615828       -0.02840337297173
N           -3.24614487023892       -1.15329551765263       -0.05037311352123
C           -3.94893579275232       -0.00075053141611       -0.00524402201260
N           -5.29170242630053       -0.00215241255168        0.02511118615900
H           -5.76788891039260       -0.86573264205210       -0.16244952994050
H           -5.76814334351401        0.87365525359077       -0.09131112330682
N           -3.24644750688626        1.15188424251573        0.04197613029281
C           -1.97526841972712        0.73450603083916        0.02991393569674
C           -0.78334322089650        1.41937979666860        0.05221878251053
C            0.44242340611827        0.73614295897429        0.02279620840332
C            1.58333891810068        1.53603569797564        0.03060413373993
H            1.36493902471091        2.59941548355578        0.05866291337580
H           -0.79030642633347        2.49884567645336        0.09120612821621
H           -0.78965646603991       -2.49995163392329       -0.09177697552212
H            1.36564388864365       -2.59992487957130       -0.06015400367035
H            4.63884496642084        0.00025963673058       -0.00427598897491
H            3.41170942265940        3.24492556735982       -0.14250050381669
H            4.75757552194664        2.20670759599337       -0.18590039689752
