27
 energy: -46.936097411163 gnorm: 0.000527839963 xtb: 6.6.1 (8d0f1dd)
N           -4.85237688155673       -1.18635417229571       -0.30947782068817
C           -3.87893008353787       -0.58721350692350       -0.17682641842178
C           -2.67806595266309        0.12682144681110       -0.02263158528616
C           -2.77126015455016        1.40708479181016        0.55257426284486
N           -1.93221831661298        2.38784153562218        0.43002679166321
C           -0.70575490883093        2.35702120590902       -0.05866283280599
C            0.21226689949578        1.31340593374627       -0.11318821933204
C            1.56493750569324        1.69035478264345       -0.25068722267605
C            2.55554905976226        0.75543828853117       -0.13432879764715
C            2.22171440160717       -0.63439541804726        0.13319953047271
C            3.44306986378259       -1.27477877793756        0.27216910241631
N            4.47616303050328       -0.41329954300632        0.09971885096519
C            3.97600306972474        0.78235318810741       -0.13542234801385
H            4.61238102569529        1.63148323035405       -0.30090152807764
H            3.65275476549750       -2.31034467109561        0.47373579673209
C            0.87969778550473       -1.05376156013217        0.15610353270439
N            0.63231741517180       -2.40727009125754        0.34501730063323
H           -0.20672230422119       -2.64377757519686        0.85436104863720
H            1.44400008320601       -2.90928528263691        0.67295163888676
C           -0.14287235092513       -0.11284219805660       -0.03480249628674
C           -1.47385879852955       -0.55039807764433       -0.35255771987862
N           -1.61708267063862       -1.74818092842955       -0.94342378895205
H           -2.53641308989413       -2.07901888422422       -1.18967385414866
H           -0.80606396624567       -2.28975289060947       -1.19529096514666
H            1.80275910398210        2.73717814548255       -0.37410068934286
H           -0.33990740962028        3.34615101435241       -0.31832221905097
H           -3.69509729799999        1.65898764392380        1.06389205969897
