24
 energy: -43.765589798661 gnorm: 0.000665677093 xtb: 6.6.1 (8d0f1dd)
N            2.08553301978265        3.40250710110526       -0.00352933333306
C            2.02583102200284        2.25748317097919       -0.00226910350660
C            2.04797213027917        0.83847016232871       -0.00367865420792
C            3.33151240687026        0.27605435212059       -0.01389798276300
N            3.73466107398270       -0.97167065936586       -0.01761780810355
C            2.96865277551063       -2.04786365106040       -0.01221004623081
C            1.59160849893642       -2.19757087376771       -0.00159614521348
C            0.56542033373276       -1.24168137123807        0.00693285716751
N           -0.66138940291682       -1.76326243291757        0.01620066980161
C           -1.68342476498124       -0.91951134852468        0.02453940634008
C           -1.46651649378115        0.56474797400173        0.02357566105969
N           -0.24280753421657        1.07629790319484        0.01433842959326
C            0.77532093127988        0.22247330122465        0.00600445841685
C           -2.69979869448725        1.16806515871843        0.03356525855630
C           -3.67158611398700        0.13200980911351        0.04067320186834
N           -4.99548909226303        0.32829273255044        0.05115799878796
H           -5.37134960477026        1.26037740740610        0.05466663283153
H           -5.62700653299889       -0.45347145400831        0.05585311076360
C           -3.04059415142690       -1.14015690903699        0.03512118707303
H           -3.54215294407186       -2.08800517726234        0.03865037594733
H           -2.90395344471403        2.22056723309215        0.03571797093490
H            1.21623713902826       -3.21385808118452        0.00075213218535
H            3.55161926567604       -2.96446243544030       -0.01717931216925
H            4.15343192613344        0.98778990037112       -0.01993705189983
