36
 energy: -55.601627020655 gnorm: 0.000562839826 xtb: 6.6.1 (8d0f1dd)
N           -4.90940808233893       -0.37562681260119       -0.25472374938547
C           -3.54931983950727       -0.29261922108443       -0.07159344434786
C           -2.78028790731961       -1.35133601503118       -0.51328138065917
C           -1.41219405391943       -1.61127748316410       -0.32240587717915
N           -1.07951802412685       -2.92011745017848       -0.56533584532488
H           -0.10105930040831       -3.12148860108687       -0.72369030225666
H           -1.74675558276131       -3.45935499281501       -1.09195862004807
C           -0.39023900804987       -0.70106492412986        0.03599759212649
C            0.93750929323915       -1.16045312884581        0.23558825888355
N            1.24754622191347       -2.50099308523902        0.47876755724193
H            2.24953626286658       -2.62556903502867        0.57912393834377
H            0.70243652124778       -2.94827065315081        1.20136668651414
C            2.00492997679578       -0.29105349528371        0.04620450150218
C            1.78166394363868        1.05292506248998       -0.43385259267184
C            3.02579617201170        1.60976445403670       -0.72113835123830
C            4.00623992654372        0.66385546262643       -0.39950313056800
C            3.40193641340457       -0.48988509865588        0.08253979814518
N            4.04698545508107       -1.68801542407308        0.51843883789512
H            5.00689858941444       -1.69622333157295        0.18726731637500
H            4.07322183386320       -1.73328716157865        1.53583338146361
H            5.06904384034679        0.80831363342117       -0.51109288501095
H            3.22813950507178        2.59785062629633       -1.09814673632003
C            0.48293582420029        1.57822977812522       -0.38178109099488
N            0.33448904110883        2.94909204806801       -0.63407244705236
H           -0.54985752628061        3.20813372994866       -1.04720841100487
H            1.12272107721130        3.31991596277724       -1.14370724235470
C           -0.59050698362525        0.76515499282321       -0.00166753615756
C           -1.78254671581134        1.37760840413524        0.51390146252292
N           -1.64492668651105        2.63012752091131        1.04977668813444
H           -2.40137836279012        2.99614599274068        1.60041123269386
H           -0.71909023484886        2.97971721876450        1.22623417952565
C           -3.06898359394197        0.87348505686233        0.53586962903463
H           -3.82169799018820        1.51938804386532        0.97550894430469
H           -3.33991286878385       -2.17017945495844       -0.95464491334772
H           -5.49187951689457        0.26188835913011        0.26020115802589
H           -5.30711259175108       -1.27924556064515       -0.44583509431103
