26
 energy: -53.597901589798 gnorm: 0.000794721560 xtb: 6.6.1 (8d0f1dd)
N           -2.08110420537687       -4.08798593729197        0.00332664215300
C           -2.10011357612603       -2.94197937945890        0.00090471863779
C           -2.20374613536019       -1.52585058493447       -0.00274881612406
C           -3.56908494980336       -1.09049053139546       -0.01734417214251
N           -4.09216063892543        0.08819600055096       -0.00925518293715
C           -3.45474915136852        1.26198682802989        0.00954034894194
C           -2.10714857563772        1.55364308348327        0.00624162488383
C           -1.78813691353612        2.93999839364038        0.01324901431659
N           -1.60249451905423        4.06980091007124        0.02334606526300
C           -0.95654749768638        0.68955550178382       -0.00192607022175
N            0.17678370678516        1.34734326500362       -0.00501984281993
C            1.32584765626813        0.67982988767327       -0.00368049121774
C            1.37462826926418       -0.78510537422643        0.00344590161468
C            2.76877203133376       -1.15633799605331        0.00445555609864
C            3.23956894821372       -2.47430519193176        0.01043708784722
N            3.59837932368451       -3.56441643489937        0.01642252637380
C            3.50797934399253        0.00345848043192       -0.00150273028125
C            2.63533931876891        1.14537732109044       -0.00680695063320
C            3.06564846658781        2.47589322218621       -0.01335759994657
N            3.44647491627670        3.55858810637086       -0.02010260417349
H            4.58140383290114        0.06738510986277       -0.00228545736434
C            0.21328392667995       -1.48841768954348        0.00601286189209
C           -1.02813081465166       -0.77947130217972        0.00143094323829
H            0.20769110055373       -2.57025181053322        0.00956365639572
H           -4.13859278512807        2.10499732506335        0.02323699292006
H           -4.30157821345564       -1.89364883639385       -0.03609062781467
