25
 energy: -47.498717324899 gnorm: 0.000983823283 xtb: 6.6.1 (8d0f1dd)
N            4.70329989773052        2.11374713086283        0.58928719156659
C            4.03733877009905        1.20396281284782        0.36675883299497
C            3.23266006360116        0.09448787262846        0.10794743345260
C            1.82787843758582        0.08264545458557       -0.06623821677141
C            1.49886081599973       -1.34892248013110       -0.33469783359068
N            2.60796211970263       -2.06377069779186       -0.34012756949784
C            3.63365536332762       -1.21989060136677       -0.15262614024983
H            4.64288103699503       -1.58913722555673       -0.18187712601138
N            0.25424703710096       -1.73434292767105       -0.25567753700952
C           -0.74087959436935       -0.88509067131940       -0.06465377751763
N           -1.94748820792225       -1.40044549914684       -0.11212021441037
C           -3.14185103537700       -0.88427903992566        0.10693852331480
N           -4.09280050442831       -1.82606442935453        0.31345543412230
H           -5.06893339417896       -1.59395802025622        0.31109365753427
H           -3.81240443837748       -2.78702247506201        0.22347386399112
C           -3.54707538375850        0.46102539721200        0.06919898104049
C           -2.73001771377794        1.57924130516828       -0.07054660869969
N           -3.33247016727397        2.78342762809945       -0.25520740111631
H           -4.32881410634106        2.86495886141559       -0.16420831295403
H           -2.78610493948240        3.62513504395350       -0.21959057229389
C           -1.32438931366417        1.58984209003135       -0.04510065800607
C           -0.40948630337059        0.55583081519092        0.11688842936741
N            0.86866309064942        0.90140957703529        0.22808489434991
H           -0.86179561629424        2.55305993886049       -0.22492266551095
H           -4.61516245037856        0.63590726019155        0.07052994380492
