26
 energy: -52.819427541841 gnorm: 0.000503437640 xtb: 6.6.1 (8d0f1dd)
N           -1.56810682571299       -3.91733325917805        0.00158766831446
C           -1.80479637152280       -2.79653084986838       -0.00052943628550
C           -2.19055517438552       -1.42846334658664        0.00051094253788
C           -3.56416248732760       -1.21045157371413        0.00092964857106
N           -4.26780488664142       -0.09355538327047        0.00116922209005
C           -3.79335089204529        1.12776464508574        0.00077324837818
C           -2.48524412902718        1.61915854386307       -0.00007843659737
C           -1.26215389557428        0.95082506356222       -0.00050169945594
C           -1.09789134025729       -0.51044129536203       -0.00011513724261
N            0.07643599775831       -1.10791763862866       -0.00049506437503
C            1.17720762205154       -0.36867735186544       -0.00128506626108
C            1.15288894675259        1.11002842356105       -0.00178000005462
N            2.38617450345784        1.62019484587970       -0.00258637477862
C            3.21681827747969        0.56920352582740       -0.00251311405224
N            4.53533952109179        0.71517637115937       -0.00306890502657
H            4.92218287000149        1.64443478388930       -0.00359904977138
H            5.13928199949381       -0.09010340290287       -0.00295070261681
C            2.51945285202836       -0.70510543052988       -0.00161522666091
C            3.16093661167175       -1.94048078314278       -0.00084898880248
N            3.76716901180322       -2.91686240083863       -0.00221909078334
C           -0.07918864799448        1.74311243542676       -0.00136634513055
C           -0.13979679000314        3.15519902615182       -0.00196958979450
N           -0.18171921671194        4.30102414054937       -0.00188030396352
H           -2.41030061374825        2.70141454997892       -0.00038912345028
H           -4.57769271525565        1.87918931597813        0.00110306136932
H           -4.18658555548252       -2.10137189892495        0.00119723824239
