28
 energy: -51.479745935399 gnorm: 0.000860631851 xtb: 6.6.1 (8d0f1dd)
N            4.33991456798416        2.51228886303524        0.82694375067991
C            3.69999656421013        1.59330757856548        0.55914357345653
C            2.97321506426506        0.45617800831813        0.22439090475892
C            1.56557100778212        0.31328049501800        0.17189792111264
C            1.28490286477887       -1.07449952922530       -0.23969516457596
C            2.48536553422146       -1.71648817762975       -0.41991506642341
C            3.53502921464971       -0.78764897189892       -0.13568241885264
N            4.84572954942943       -1.05778784472349       -0.20374158437033
H            5.16749632318301       -1.97805234518265       -0.44545602077969
H            5.51648432129928       -0.34323111081582        0.02293841424980
H            2.63570430306261       -2.73677596291346       -0.71800115156544
C           -0.04412858381155       -1.51167686653497       -0.30939168486987
C           -1.08459260305650       -0.64410406664104       -0.06853698302950
C           -2.39533194801293       -1.14871418043567        0.19271287163351
C           -2.53119367677117       -2.54996216770457        0.32124440198056
N           -2.68107284668891       -3.68416092848959        0.41926131490883
C           -3.56143357847516       -0.43200853757715        0.46418604082553
N           -3.84490976802932        0.83410469557305        0.25144996208534
C           -2.97234816241348        1.74730010476637       -0.15503743923398
N           -3.49872718136262        2.86222144522223       -0.69914988724691
H           -2.90293230909782        3.65608948959186       -0.85151414053881
H           -4.49742448313814        2.97013048373451       -0.70051371269250
N           -1.65387114278314        1.77844247869917        0.03268215447247
C           -0.79467351138491        0.80116781367785        0.13861557469337
C            0.54232043825367        1.19603429663142        0.37735020118737
H            0.72699844186986        2.23305665313870        0.61228047873723
H           -4.40513964596030       -1.00087620597080        0.84382778978684
H           -0.24806382380331       -2.55530939642987       -0.50283182219019
