31
 energy: -54.620469284866 gnorm: 0.000841972631 xtb: 6.6.1 (8d0f1dd)
N           -5.72626248680336       -1.84906723087848        0.34122156177144
C           -4.87143926525890       -1.08804278370513        0.22796571696716
C           -3.80855109280275       -0.17758781405015        0.09842070641153
C           -4.10119721179339        1.12296592416599       -0.27381850733812
N           -3.32253544955580        2.18272733348619       -0.15992182032952
C           -2.04324927042133        2.24211435874610        0.08321850392300
C           -1.01102539301775        1.29459927835605       -0.02973487481959
C            0.29185794297478        1.77568555204938        0.01835507213623
C            1.37721362880553        0.92016166780691        0.02302056159498
C            1.15979139641108       -0.52343592693776       -0.01814903370418
C            2.43314827537469       -1.14259146085358        0.00960116795761
N            2.69992939797374       -2.49887475978289        0.00062616158426
H            2.11394586975427       -3.05632618550101        0.60666647737645
H            3.68239058888586       -2.71051110778773        0.11917355234321
C            3.40409673234244       -0.12365268018963        0.02379922395748
C            4.78203504468195       -0.32899064735658        0.04308133352471
N            5.91880934904987       -0.51035880206428        0.05701350554484
C            2.76095874540692        1.14576496825825        0.02363742520686
N            3.40648933746874        2.34460378073851        0.10314254715226
H            4.39099944191448        2.35202317037651       -0.10751702604904
H            2.89082067312556        3.17063972865507       -0.14733772580703
C           -0.11284802239345       -1.04832642038539       -0.13151773891784
N           -0.27253294490182       -2.38808084699463       -0.33923989675286
H            0.53784863841127       -2.87303949632429       -0.69075053017487
H           -1.15520726755312       -2.71951495444013       -0.69065832384180
C           -1.26374686765195       -0.17047015957752       -0.03951192368549
C           -2.48903179429456       -0.74023139446672        0.16308230053352
H           -2.51722665009076       -1.81352733038001        0.31565232243691
H            0.44588193319028        2.84551094315099        0.04489298455453
H           -1.72539342705718        3.24540589739223        0.36077401949779
H           -5.10827864577673        1.34976166839280       -0.60996593835499
