27
 energy: -51.742738636767 gnorm: 0.000723055842 xtb: 6.6.1 (8d0f1dd)
N           -5.46121285806661       -1.23827894076834       -0.24243748513363
C           -4.33739424421293       -1.03448768820683       -0.11714087264996
C           -2.96314451806320       -0.76837187184584        0.04390646245966
C           -2.15978720275848       -1.85623272272893        0.46277267590138
N           -0.88608176359239       -2.00488768555136        0.39105367649983
C            0.10441661957210       -1.14903392732415        0.14227255273342
N            1.24000167143720       -1.71387652934746       -0.17661116689918
C            2.35283685092327       -0.97411809879553       -0.15363616594240
C            2.36335936682724        0.43072470682869        0.33564011989368
N            3.61764376763294        0.90691749855127        0.39342764154739
C            4.39302729242632       -0.08998655668534       -0.05120251307977
N            5.71629883734234        0.05616076196841       -0.13520630759094
H            6.12333805813780        0.92591676848331        0.16322531215525
H            6.30397503121795       -0.69858286947147       -0.44102345468500
C            3.66010338988304       -1.27913175163330       -0.40973330393145
H            4.08059348091061       -2.19240042184004       -0.77671668744247
C            1.16620592707771        1.05389931921083        0.57364381877301
C           -0.02036042549709        0.32927365109883        0.33831833145475
C           -1.21440655861665        1.02872788985180        0.13998378861639
C           -1.12106718400430        2.44269436894536        0.15895352740440
N           -1.10945179366162        3.59131895989160        0.17332467476554
C           -2.52887890769272        0.55036403885426       -0.17051709238376
N           -3.42989838788651        1.45156056728993       -0.61907400161137
H           -4.38738732444662        1.17159726989255       -0.75469461739845
H           -3.19498931629030        2.42832382603421       -0.67798229946058
H            1.13050035714274        2.09929884307378        0.84417156636996
H           -2.69426254434217       -2.73503236067677        0.81421985173448
