25
 energy: -48.284223739953 gnorm: 0.000910662516 xtb: 6.6.1 (8d0f1dd)
N           -5.12579517072408       -1.18041723167466       -0.43610529444429
C           -3.99529869117483       -1.01404071608882       -0.31337273952542
C           -2.61171320814097       -0.78268798021439       -0.19191849450391
C           -1.79177441031929       -1.92466476844236       -0.15724458185318
N           -0.53378349185997       -2.04383776988078        0.10743778740852
C            0.46249432483521       -1.18142671431807        0.07417926279952
N            1.64840262903297       -1.58499080344682        0.42514987620113
C            2.73784108489174       -0.85003725930993        0.38063850208240
C            2.61907346477466        0.53103139653437       -0.21603446054052
N            1.43167708273601        0.95245156144716       -0.49934549709335
C            0.33205839497766        0.28195184931596       -0.26931089963254
C           -0.85255482946221        0.99828935433723        0.01299108044119
C           -0.64375188176508        2.35807303581036        0.33279795496111
N           -0.50198283061652        3.47004051242940        0.58553032392366
C           -2.19951020147193        0.55563996599418        0.02589690670186
N           -3.15404010290626        1.48023403041463        0.24151826374473
H           -2.90866787396797        2.44789472366219        0.37199283441357
H           -4.12475100011257        1.21365999400241        0.22728513069010
C            3.91965801173377        0.97106977615872       -0.49602480259801
C            4.78760120839812       -0.01268648801304       -0.06459493614733
C            4.07800927183240       -1.14605963278698        0.40739058330726
H            4.51004888242365       -2.07781638842461        0.71602378730058
H            5.85994659633040        0.04280447722540       -0.12116826655557
H            4.17226875998517        1.93410933462258       -0.89441048231388
H           -2.30381316792546       -2.87731822716504       -0.26147414176611
