29
 energy: -51.195799065940 gnorm: 0.000871891246 xtb: 6.6.1 (8d0f1dd)
N           -5.61401902401581       -0.53562842789825        0.00565538558019
C           -4.47106837189856       -0.39105379629515        0.00719363538175
C           -3.07730299646549       -0.22655769162622        0.00363104289598
C           -2.59051760156823        1.14777646822765        0.00086232138160
N           -1.38526275068028        1.60525414651490       -0.00167222677093
C           -0.17254843370382        1.00333087281009        0.00020682563900
C            0.89456744223545        1.87460560209422        0.00226069924150
C            2.21875210061297        1.41809505416621        0.00229006488991
C            2.46053884625650       -0.02089203067588       -0.00109207774778
C            3.90252668612465       -0.20381815992359       -0.00076899742251
C            4.53623599472177       -1.44228423478744       -0.00255950661331
N            5.02720052843482       -2.48365594854346       -0.00778792952062
C            4.46607799465750        1.05262472694156        0.00235644342958
C            3.44657950991135        2.04490442147798        0.00437273961594
H            3.62419885222861        3.10416202555463        0.00715279456662
H            5.52211289089463        1.25887662556720        0.00343166956439
C            1.43873768663597       -0.90226844288885       -0.00338021625976
C            0.07253552226337       -0.44681177228317       -0.00168099358725
C           -0.87663339382477       -1.43111077376565       -0.00161441566821
C           -2.30378551765558       -1.37959144717730        0.00179667112501
N           -2.92602502802010       -2.58272091631498        0.00253925899448
H           -3.93025576382062       -2.63438958369263        0.00680631352221
H           -2.39642671945948       -3.43513865866503        0.00339140727719
H           -0.49144857319718       -2.44661118619690       -0.00356883188196
H            1.62714146652008       -1.96778065719506       -0.00578244477211
H            0.68348569977385        2.93236694946139        0.00390554859581
N           -3.55529308924429        2.10361053044781        0.00812694505284
H           -3.25722024585934        3.06177273502214       -0.01147016739994
H           -4.53242632145802        1.87569033444369       -0.02032234600962
