28
 energy: -46.655053377337 gnorm: 0.000752014434 xtb: 6.6.1 (8d0f1dd)
N            4.81171838678214        2.03724500952040       -0.45570655789779
C            3.99417829867628        1.24413937589186       -0.29519598420352
C            2.98450684279408        0.28483489428366       -0.10848822573605
C            3.36841803806903       -0.99835814032661        0.31094681064791
N            2.66937563486849       -2.09549872404124        0.26540537478536
C            1.39253759976113       -2.25036532597641       -0.03957148093686
C            0.31026888153863       -1.37843434396296        0.01176274738242
C           -0.96653590042691       -1.94674185657777       -0.06658679250739
C           -2.09836164882320       -1.16653874931715       -0.06466741820052
C           -1.98258091779437        0.28795982935833        0.00429611874707
C           -3.29350116457428        0.80190876892087       -0.02813357026229
N           -3.65835986376880        2.14675789548308       -0.00220391105476
H           -4.65422522839024        2.27538293545237       -0.12662896370683
H           -3.13392308585911        2.72822670144227       -0.64361459870034
C           -4.18087298142011       -0.28726261326208       -0.07360858942398
C           -3.46716807785730       -1.47613480710116       -0.09186403902997
H           -3.88481753723463       -2.46459118640350       -0.13008048966194
H           -5.25319124671888       -0.19801110219953       -0.09345240985605
C           -0.74118312410789        0.89671075798958        0.13219355029023
N           -0.68237312705328        2.24885146399112        0.33335742252523
H           -1.53932487701675        2.66625143317903        0.66146598588722
H            0.15858019801724        2.64231260698171        0.72086426337372
C            0.45264007661881        0.10397585273126        0.04731992947950
C            1.64968156032743        0.75352439416385       -0.15303524270228
H            1.59501977058649        1.82446235731983       -0.32115635525005
H           -1.05373759293717       -3.02330460015904       -0.10912929378317
H            1.15822067390463       -3.28587983128082       -0.27569032292936
H            4.38705640593936       -1.12791266580161        0.66532518852410
