30
 energy: -49.300683804506 gnorm: 0.000718632404 xtb: 6.6.1 (8d0f1dd)
N           -4.84019051908242       -0.20548498775735       -0.67337497847442
C           -3.55615423986760       -0.24625291289494       -0.24602354932479
N           -3.07099158319487       -1.48242724869203       -0.16233172442568
C           -1.83275833108264       -1.80382058722228        0.13365676019641
C           -0.62802296387866       -1.09482804976217        0.16466092963103
C            0.51830185456507       -1.90328075074920        0.24877624519824
C            1.77449230738450       -1.35877602900779        0.15841864695305
C            1.92079712006291        0.07309759694777       -0.04112598269260
C            3.29863406266083        0.27606174585862       -0.14759914765034
N            3.98052110127500        1.48151159019332       -0.36184917831618
H            3.79695873216394        2.17185971728355        0.35851017287721
H            4.97520806841674        1.29200189821862       -0.40925103382648
N            3.97732571337281       -0.88902787831698       -0.03805425050999
C            3.09057293573664       -1.86255928698874        0.13365237881496
H            3.40866933549369       -2.88271364054954        0.24372906104204
C            0.80011520450556        0.90721975324041       -0.10849418151643
N            1.03382698092723        2.25545664909780       -0.37355827797382
H            0.30884674898358        2.71705897094195       -0.90522123570385
H            1.95353284635611        2.39532726624261       -0.77214747213204
C           -0.48578345322787        0.36982161836502        0.08785293424030
C           -1.60084630495385        1.23038195884625        0.33994861020772
N           -1.33553879756309        2.50759611676097        0.74129346345262
H           -0.41285844817473        2.72024483772598        1.08379608503423
H           -2.10001915924948        3.05369519762697        1.10078247266655
C           -2.95466033795279        0.94807747019231        0.16529316426097
H           -3.62826209005523        1.78661451945856        0.30485159518379
H            0.39646917643189       -2.97471267378776        0.32819927664162
H           -1.73642700208050       -2.87468551705991        0.30107976010263
H           -5.28740791335973       -1.07473111512376       -0.90248988832936
H           -5.35257341171321        0.65461257751172       -0.72811553532760
