31
 energy: -54.638339511566 gnorm: 0.000816871134 xtb: 6.6.1 (8d0f1dd)
N           -4.72953723794735       -2.38461123774036       -0.57834960318759
C           -4.03122339479209       -1.48440472241795       -0.40211400339723
C           -3.23589547146645       -0.36798770238252       -0.18477059309725
C           -1.83437911173395       -0.29597648478736       -0.12400031333651
C           -1.47944081040559        1.10864418446126        0.13212856123411
C           -2.65195784460161        1.83914430497906        0.22204456071182
C           -3.73404197933719        0.95288844477721        0.02928555534558
N           -5.03700365353093        1.27571638992746        0.04392848152366
H           -5.32866428257217        2.22550071211038        0.18964648194083
H           -5.73051696106519        0.56397483781392       -0.10970316762243
H           -2.74010030259973        2.89363954982011        0.40262640983710
C           -0.13941090199739        1.46676995344341        0.20847815314480
C            0.88086935866129        0.53237192374512        0.07352621755476
C            0.51064023883247       -0.90500896897711       -0.05494620313168
N            1.30780533148255       -1.94925602312872        0.00991142779678
C            2.62063637352135       -2.05385743435553        0.12815581248064
N            3.02965880666990       -3.34541781734786        0.28988499942754
H            3.96995716408868       -3.55428376616848        0.57079130323818
H            2.31085565317151       -4.02567973728496        0.46402473283564
C            3.60713235634028       -1.07089978723179       -0.00473189317866
C            3.44281219566374        0.30595866395133       -0.10847918600005
N            4.58143408755478        1.04899154938380       -0.22425402037924
H            5.45339376921529        0.58636556643316       -0.40455634661743
H            4.52385851166465        2.03659942566054       -0.40168966515294
C            2.21057328650396        1.00983597782024       -0.02171227788970
C            2.35951569830475        2.41319068060688       -0.08197818501094
N            2.55186660371953        3.54586729219002       -0.14924788951753
H            4.62955952500359       -1.42867882303226       -0.03034171590982
C           -0.84345837714538       -1.24326018715961       -0.21289236012166
H           -1.08120337276576       -2.28739005060891       -0.34802919948273
H            0.11144347526263        2.50880698229955        0.34971295456186
