29
 energy: -50.380905788768 gnorm: 0.000842561237 xtb: 6.6.1 (8d0f1dd)
N            5.12302351399063        1.43360259976201       -0.41982894308893
C            4.15359579770440        0.85115538451106       -0.20197667846562
C            2.96306412077342        0.15101459687279        0.04471327699601
C            3.07225514066103       -1.06842041927263        0.77785739960479
N            2.26594393419320       -2.06624869996614        0.78549362324350
C            1.06008386839605       -2.15476371980998        0.19945688996426
C            0.12878600654003       -1.17778987646189       -0.05871785889747
C           -1.24718775623281       -1.58168975490618       -0.29216781512562
N           -1.56983978280630       -2.86537031973638       -0.57390305370543
H           -0.87849082862463       -3.52836618720483       -0.87093580356555
H           -2.53639710720038       -3.08036585356063       -0.74122632354829
C           -2.24022355224973       -0.63723082648110       -0.12349885764535
C           -1.92334319947745        0.74419193098465        0.16956500662592
C           -3.16172346172257        1.37665866536380        0.30589681458787
N           -3.42482921430302        2.70425555288057        0.52297602145966
H           -4.38318097647193        2.89116865880551        0.77355840463959
H           -2.73735907314156        3.21836610487784        1.04995872196242
N           -4.18692423736346        0.50064159336149        0.11015384428712
C           -3.65885091209004       -0.68018259651021       -0.14875376511504
H           -4.29692881360597       -1.52701221491024       -0.32915449646043
C           -0.59666227999372        1.17251635387848        0.12770320556353
C            0.42310928832625        0.25998711361897       -0.02670936658632
C            1.75477185870873        0.75241634600289       -0.32429714240483
N            1.82485479723308        1.93907547388232       -0.95693752500285
H            0.98942188107282        2.41721373123261       -1.24308557569178
H            2.72434766194131        2.34550008944460       -1.15968192880050
H           -0.38303541033733        2.22801669864162        0.23246997479365
H            0.77384260707724       -3.19530623817067        0.09168389574492
H            3.98675936390014       -1.21313811852941        1.34645830822980
