29
 energy: -55.993500758500 gnorm: 0.000649554972 xtb: 6.6.1 (8d0f1dd)
N           -5.89853652630037       -0.26416674523876       -0.60293561789404
C           -4.77643196512501       -0.14317296885810       -0.37938425219780
C           -3.40666253262970       -0.00361046130632       -0.09836948429306
C           -2.70738203111571       -1.20686190342694        0.31237713909164
N           -1.43622073319478       -1.44004611559370        0.25387366143357
C           -0.36526242667124       -0.66721211012074        0.09007414922105
N            0.74291832479061       -1.32390395484766       -0.15186755091221
C            1.90147001738339       -0.66986130236922       -0.15755111033259
C            2.00681467981011        0.75691520371415        0.16933838871806
C            3.41769447801045        1.08984129020518        0.15740840499106
C            3.92162688831622        2.36613729642068        0.41035415845415
N            4.29530510950458        3.43279877367441        0.62149267032666
C            4.10701647723405       -0.05275200759510       -0.16146316867187
C            3.19271959952043       -1.14611022159419       -0.35361450460132
C            3.57771759384267       -2.44959880450184       -0.67315430303899
N            3.92577896302681       -3.51120016919897       -0.94160766205628
H            5.17492344607984       -0.14031826781032       -0.25574846760238
C            0.88208820525020        1.46764645447539        0.40116501643927
C           -0.38701620456151        0.80969338910624        0.25070681580194
C           -1.49148665051353        1.60058619000586        0.10664721430983
C           -2.84858847229505        1.26784055452605       -0.19176842027002
N           -3.64322696296971        2.30565617368506       -0.53585775056384
H           -4.60960307094412        2.14901730770407       -0.76797138565696
H           -3.26943984273646        3.23336787367561       -0.62510564142804
H           -1.30760269316366        2.67126817242201        0.13883099027084
H            0.90703054478239        2.52240769922264        0.64443885743146
N           -3.46765731407043       -2.23473638888051        0.74313932193745
H           -4.47033702694119       -2.21234897782046        0.67258367519350
H           -2.99905484601959       -3.10667291367406        0.92152287659870
