22
 energy: -45.110765062452 gnorm: 0.000799079536 xtb: 6.6.1 (8d0f1dd)
N            2.88697560843371        2.97448399681856       -0.55820950819818
C            2.51553603454688        1.91675677083249       -0.32167270905442
C            2.11788268951664        0.58899742577399       -0.02597392364012
C            3.04451125801849       -0.42317257448896       -0.33419555102439
N            3.04374996685423       -1.67113892354667        0.05291586782316
C            2.02920292392495       -2.32506280581916        0.57836704521334
N            0.77078726155613       -2.07895595247282        0.35010952799863
C            0.15694378700077       -0.94690338299817        0.13784165988115
C           -1.20475175299219       -0.95903421916459       -0.25776740463265
C           -1.83552192266281       -2.19887134261095       -0.50965843674101
N           -2.36676428793748       -3.18483476929684       -0.75151400864975
C           -1.94032570756268        0.21777093851928       -0.22275489210975
C           -1.27734980976142        1.41868616980561        0.39610214938895
N           -2.18178730417871        2.32702861787782        0.68749896234721
C           -3.36390422459759        1.84987906251635        0.24330962983259
C           -3.29064374265272        0.55850640881273       -0.27206829962600
H           -4.09483908253886       -0.03355527835905       -0.66066276962555
H           -4.24214404002323        2.46353837702769        0.33375200275260
N            0.01712278239014        1.44954811202379        0.59127153795045
C            0.76396287252284        0.40518952362959        0.35464748374667
H            2.25788108440704       -3.25998027883822        1.07490018462948
H            3.92490350723779       -0.12978511754243       -0.89754138296337
