25
 energy: -42.696604524488 gnorm: 0.000386271351 xtb: 6.6.1 (8d0f1dd)
N            5.08547332347590        0.35018052778453       -0.03804065580607
C            3.74529412211168        0.23498776193659       -0.04288864492475
C            2.83422755793437        1.30151755743677       -0.05447833355422
C            1.56096996742844        0.75280781653305       -0.04235066876663
C            1.71330580821005       -0.73844710795358       -0.02339559779585
N            0.65014308099042       -1.53968601779551       -0.01076093378593
C           -0.54579300616032       -0.96147032852950       -0.01126384565953
C           -1.62595336547956       -1.86205009489593       -0.00707123818950
C           -2.98711171223605       -1.63649028346851        0.00560779354289
N           -3.70342247194062       -0.52704444177068        0.01636151495373
C           -3.23675015201702        0.71223753868553        0.00030086804618
N           -4.21843423164022        1.65341088560694       -0.02620954653251
H           -4.00659672394673        2.62539881119127        0.10234463215165
H           -5.16550663525943        1.33511475127451        0.07780066521678
C           -1.90647787404763        1.18299506255664       -0.02070297563914
C           -0.69882460833488        0.50817630578478       -0.02203810802348
N            0.37583410139494        1.32482461085292       -0.03835135654839
H           -1.79207616382294        2.26135524510562       -0.03715864086572
H           -3.61886272246015       -2.52110320446680        0.01388596784964
H           -1.30877298039020       -2.89755094653653       -0.00985633903414
C            3.05348246430960       -1.01626938258123       -0.02112110051809
H            3.51915790886352       -1.98270052461695       -0.00613480145405
H            3.08268290666852        2.34475765240348       -0.07060197752162
H            5.51753077353095        1.25507467233232       -0.09230834692919
H            5.66461182561735       -0.46949615806971       -0.06771727041203
