26
 energy: -42.418877658941 gnorm: 0.000564464307 xtb: 6.6.1 (8d0f1dd)
N           -3.47609940077438       -2.30150213146537       -0.12136650181753
C           -2.60613699334806       -1.24392597433800       -0.04155959238949
C           -3.13644297174018        0.03247068485649       -0.03144340486394
C           -2.43713227635787        1.25663220712287       -0.02056807195647
N           -1.14626479771655        1.50035459750094       -0.02270697889318
C           -0.08794897937916        0.70194112339249       -0.02778388986164
C            1.13151542541267        1.37552312204684       -0.04141512524728
C            2.33237212978765        0.68951624090515       -0.02239844493646
N            3.57551673302357        1.15794515979215       -0.02608248177422
C            4.37449161826918        0.06389690143525        0.00631998697262
C            3.68934666120952       -1.13945946608622        0.03222151367299
C            2.32994416886093       -0.79254636970581        0.01457212024773
C            1.14040830063427       -1.47289915575053        0.02137803867074
C           -0.09577705844733       -0.79307695741768       -0.00610461522693
C           -1.23213264846269       -1.57421345478712       -0.01876207848172
H           -1.04489975504430       -2.64476525710202       -0.01565710502692
H            1.13335338476202       -2.55579777645837        0.04372004874097
H            4.11308261417725       -2.12436233530419        0.05949461980479
H            5.44344740661803        0.19763069881374        0.00969718293876
H            1.11687961020988        2.45333437810670       -0.06209499263891
N           -3.19328409585446        2.39866348991455       -0.06180496167041
H           -2.69002565955751        3.25736554183488        0.08181410099432
H           -4.16113365756464        2.37260276843944        0.20433035249110
H           -4.21746609172677        0.10810520462098       -0.04532595211101
H           -4.45394636480691       -2.13482865286512        0.03718642646345
H           -3.13732412308412       -3.22522267010208        0.08053004059857
