25
 energy: -38.702421724890 gnorm: 0.000800333872 xtb: 6.6.1 (8d0f1dd)
N           -3.90743265480026       -1.58758377172057        0.00933805996164
C           -2.92836252549636       -0.63811833403838        0.00601185655288
N           -3.36669769246797        0.58830880060556        0.01381526435897
C           -2.61304975326304        1.69931426499967        0.04912095643369
C           -1.26250612408755        1.88591174725123        0.03493860299505
C           -0.17824866217769        0.95782525685947        0.01071532636740
C            1.10003312547042        1.46580010012750       -0.02570462868808
C            2.22903244390078        0.63478028397127       -0.02649573342148
C            2.03407332233168       -0.82057553034699        0.02845794486313
C            3.33702304588925       -1.41540333173385        0.02711689787448
C            4.24823699604600       -0.40289386502749       -0.02629536647774
C            3.58044194098005        0.86395733972782       -0.05991262421706
H            4.07252289507986        1.81792019612137       -0.10381800114561
H            5.31848186723826       -0.51770547973451       -0.04160818724887
H            3.53530070772947       -2.47003193286100        0.06252168283563
C            0.78463164204775       -1.34129231575575        0.06386968248159
C           -0.37689943372723       -0.49964164814486        0.04245490305424
C           -1.58299581475747       -1.14340315563996        0.04412599640590
H           -1.53574892094941       -2.22775673920267        0.07059689793452
H            0.63347885442695       -2.41238045514932        0.10060791379509
H            1.24087211900640        2.53771709623021       -0.05116703915619
H           -0.94500422812654        2.92249330773434        0.04345816952877
H           -3.23217510855913        2.59091667295901        0.07455001286380
H           -4.84948687113008       -1.26115438947130       -0.12029581915770
H           -3.69831567880418       -2.54452221626077       -0.21005205979405
