23
 energy: -44.049477483822 gnorm: 0.000843826651 xtb: 6.6.1 (8d0f1dd)
N           -4.28335657230622       -2.19060427236213       -1.11109565632738
C           -3.68442320249671       -1.30891861568035       -0.68054038187317
C           -2.93803929085203       -0.25501844325260       -0.15494308932891
C           -1.53861972330703       -0.08820815889763       -0.22081601313339
C           -1.30056385965264        1.20978916539335        0.50078361003358
N           -2.44674183454982        1.70197267766364        0.95289895455832
C           -3.41157651827245        0.87299574098691        0.53654941590545
H           -4.44092950928637        1.09777226653711        0.75510412750772
N           -0.10524711595545        1.72481801145203        0.62806483807351
C            0.92390061827410        1.05779539612319        0.14062476397870
N            1.97195329171001        1.70638431131841       -0.28912187130150
C            3.16766272796124        1.27456881753026       -0.63960738964056
C            3.79477771267324        0.10185658852571       -0.28235688259830
C            3.09632658382610       -1.02514686712026        0.22628203877769
N            3.77805280927071       -2.04011847551142        0.79372857444027
H            3.29023907698342       -2.89157430581892        1.01147451581327
H            4.78005705107749       -2.01959583879071        0.84669606636112
N            1.81679390329183       -1.24294501852951       -0.01020751263995
C            0.81180928951078       -0.42461871354408       -0.13292037725546
C           -0.46792174837226       -0.91140977560542       -0.46049753321107
H           -0.58550364101593       -1.95082664953050       -0.73326141322435
H            4.85564840657202       -0.00436100217857       -0.46378555638854
H            3.73880541651699        2.01533658519104       -1.18994240012728
