22
 energy: -40.312768436892 gnorm: 0.000932478289 xtb: 6.6.1 (8d0f1dd)
N           -1.85426541649402       -3.30440205495139        0.41735820146445
C           -1.77425593701804       -2.17668346684467        0.22732276761269
C           -1.72873398395263       -0.78102624282084       -0.01129808030437
C           -2.98038619391811       -0.15841852159023       -0.14455064240610
N           -3.31888232974161        1.10159725875731       -0.23622301429003
C           -2.51114154682354        2.14083453504515       -0.07261468690703
C           -1.14177703028033        2.22140615999610        0.07792913083120
C           -0.15456008152545        1.22396341209987       -0.04477596037434
N            1.09562994993036        1.63919835108142        0.05230367193109
C            2.09461336987178        0.79368971791908        0.12929818369047
C            1.80883208029395       -0.68716845081828        0.02995626370661
N            0.57332717868405       -1.08615275720210       -0.11235811601509
C           -0.43131036483986       -0.22588140486257       -0.11152653429145
C            3.03431676821434       -1.32733201987776       -0.09232282625330
C            4.02492637261656       -0.34577068847015       -0.03299927164654
C            3.46683771377243        0.94010575086026        0.05551784842713
H            4.00601598952669        1.86707179930727        0.07354047621972
H            5.08077369779846       -0.54318352281817       -0.09528245000429
H            3.18352412646149       -2.38528048467855       -0.18241391456158
H           -0.73470649855206        3.19906424950646        0.30348967211343
H           -3.05429071876970        3.08080039618118       -0.04677808777216
H           -3.83185463955476       -0.83415613701921       -0.17029660487067
