23
 energy: -48.849147315540 gnorm: 0.000845251216 xtb: 6.6.1 (8d0f1dd)
N           -4.41593104850809       -1.65112021343888        0.93616158861833
C           -3.71999037419993       -0.82775632000553        0.54305813011035
C           -2.88387357676183        0.18371467877701        0.05912974651106
C           -3.26892976384631        1.35206619128786       -0.61496533739095
N           -2.23374182190767        2.12544290815545       -0.97985187900100
C           -1.14335152368794        1.57929878482611       -0.47971854850512
N            0.08958830660169        2.01462144344935       -0.53425320472682
C            1.07013853142115        1.28470624333894       -0.07709342523933
N            2.14052064650918        1.82983481919153        0.46183649822231
C            3.26499686166124        1.24768009446792        0.80989949346928
N            3.81649881658779        0.13840999393852        0.38600497837913
C            3.12695961674265       -0.82849918439120       -0.22505028170471
N            3.80766979074134       -1.74098558669136       -0.92174338785607
H            4.81091578119723       -1.67628524492782       -0.94948376329913
H            3.34623116248561       -2.58160986125736       -1.22535953033200
N            1.83779266537158       -1.06172348632737        0.00944915106970
C            0.87389841856127       -0.20284833411203        0.11788145171355
C           -0.45628040273893       -0.62372348252199        0.40056151618584
C           -0.69014070281100       -1.99765344014622        0.63478558401079
N           -0.85823142826409       -3.11033651607470        0.84994056813122
C           -1.48402865948831        0.28156170194227        0.19744567375041
H            3.87790905525980        1.83092172790287        1.49076779080809
H           -4.27260753992643        1.64815907091678       -0.86137483862411
