25
 energy: -49.085910226608 gnorm: 0.000748738492 xtb: 6.6.1 (8d0f1dd)
N           -1.18295329016634       -4.07639041192714       -0.00116978325574
C           -1.43403875927315       -2.95846258608714       -0.00110481486270
C           -1.84101667376771       -1.59474794940049       -0.00079198276279
C           -3.22865446577793       -1.47191339307902       -0.00129581193726
N           -4.01260852468703       -0.40480296755615       -0.00065616833324
C           -3.63134160066769        0.83927974771433       -0.00025885372887
C           -2.34507046348704        1.41554811461609       -0.00076793992064
C           -1.08578777396786        0.83884425582389       -0.00071831189561
C            0.02052825765692        1.74364384288901       -0.00096211182725
C           -0.18806597138920        3.14331651359125       -0.00216300311027
N           -0.35293711677920        4.27737113096538       -0.00089729240072
C            1.31685997419992        1.26964752158947       -0.00035777927037
C            1.56833822569396       -0.17886161910542        0.00035657833730
C            2.95938822975928       -0.28864542042634        0.00087000627216
C            3.73261087295121       -1.45050492063527        0.00188244435659
N            4.36520433882877       -2.40874540420932        0.00156026141119
C            3.43792703594955        1.05620431814525        0.00039216271702
N            2.47461251040739        1.95959611572885       -0.00034318834815
H            4.47025642838317        1.35770994862323        0.00061840896360
C            0.50457523450032       -1.06779810950581        0.00032702729602
C           -0.80797600634593       -0.61206045551558       -0.00025859028046
H            0.70463278311536       -2.13000296500013        0.00067349504936
H           -2.35151834571493        2.50005621634045       -0.00091350269612
H           -4.46024828715106        1.54014074337034        0.00045879264922
H           -3.78924489687074       -2.40229684484975       -0.00206059452223
