25
 energy: -42.694766565236 gnorm: 0.000974359113 xtb: 6.6.1 (8d0f1dd)
N           -5.03836451656375       -0.36869521709792        0.02207581973875
C           -3.70261685764560       -0.20406590435743       -0.02415782544069
C           -3.03028797100086        0.90323357869518       -0.55488717970667
C           -1.66644564257490        0.69447529801988       -0.37197740565258
C           -1.50900434591448       -0.64508511411459        0.28588483844570
C           -2.76351925337363       -1.14427382478795        0.50740898209652
H           -3.01617153891638       -2.07772919454799        0.97155539282635
N           -0.31868497876129       -1.20848697878669        0.49713215709236
C            0.74916862271823       -0.50548017132348        0.20858657052656
N            1.86898802157388       -1.15216307343434       -0.04091401899887
C            3.11008779621139       -0.73113699950330       -0.15238059995664
N            3.95278484418195       -1.60284310353084       -0.77295085328230
H            3.58875553883787       -2.52146061349442       -0.96152151226029
H            4.94535298628871       -1.50297058300313       -0.65508830662812
C            3.64417130359449        0.46576856350737        0.38470412229649
C            2.87035630134920        1.56988258029136        0.66839032405181
N            1.63630434529221        1.81234940055607        0.27193549216399
C            0.67144819825092        0.98849909593616       -0.03285158507728
C           -0.55224091161917        1.49033353338565       -0.50574486528433
H           -0.61244224352468        2.52084783094131       -0.82653025728506
H            3.34270493774874        2.42428264656464        1.14369391490006
H            4.71529717415766        0.52867670449790        0.52529841353274
H           -3.49183030444133        1.76598204779464       -0.99656643110984
H           -5.64609738654635        0.29516828775444       -0.42312706320131
H           -5.42840934602289       -1.22453080466219        0.37461666311208
