24
 energy: -42.981514438055 gnorm: 0.000595106079 xtb: 6.6.1 (8d0f1dd)
N           -3.30685180563979       -2.14591997539069        0.50397691461108
C           -2.47347212797687       -1.15121858050018        0.12369785294060
N           -3.04431850721865        0.03092527015630        0.02908659875952
C           -2.39642651072997        1.18783715217010       -0.16445005516376
N           -3.18857974442634        2.21637084165466       -0.54279527181153
H           -4.18378080051846        2.08508253892584       -0.51137769873378
H           -2.80526001514539        3.14403896254962       -0.49725251699401
N           -1.15077581984239        1.48996692644699        0.09719213386446
C           -0.06610694402157        0.73696050583637        0.07935602028248
N            1.05233620401432        1.25445316201799        0.50633998825347
C            2.20795051755945        0.59818163476083        0.43351672596834
C            2.23830322228115       -0.73149804602224       -0.25690373996232
N            1.12992266536130       -1.25981922883262       -0.66045421961339
C           -0.04273765577539       -0.69745863278846       -0.36782809545203
C           -1.13466694263337       -1.52055750579832       -0.17191499863833
H           -0.91294696464662       -2.58025888755337       -0.11583216740556
C            3.59784427979364       -1.05488480943886       -0.47967485504035
C            4.34508037835341       -0.03655529977051        0.05446913030176
C            3.50644885135920        1.00497801929841        0.55864558921303
H            3.84535439590714        1.94626409918291        0.94561249341510
H            5.42042660769896        0.00753445504441        0.06208802274690
H            3.95345252815654       -1.97109660296984       -0.90931973241739
H           -4.26629543713724       -1.91836513460832        0.69267262946105
H           -2.99513670657260       -3.09727822607089        0.55946134351413
