32
 energy: -59.172845703392 gnorm: 0.000583393144 xtb: 6.6.1 (8d0f1dd)
N           -6.05605150797481       -0.61379187510058        0.04572353841711
C           -4.91025885647713       -0.51123924172596        0.02235439726876
C           -3.50729922747426       -0.38550833197883        0.00104652733787
C           -2.77255038577697       -1.60053825796379       -0.00772133896399
N           -3.49941577333010       -2.75159372522124       -0.02850497466734
H           -4.50161408424806       -2.72569648485048        0.03551984063968
H           -3.03620181553909       -3.63945994408734        0.03026502372292
C           -1.38896368591799       -1.74108921377892       -0.01388809643706
C           -0.31879740531353       -0.83840754406318       -0.01053749042114
C            0.96031022158981       -1.40707028196774       -0.00856476715549
C            2.09683141400226       -0.62681866700649       -0.00191731785294
C            1.98400199901761        0.83644946916686        0.00081566278852
N            3.18477689346639        1.42545001033169        0.00935198713662
C            4.08204883902164        0.42825340951067        0.01226598158861
N            5.39463692057249        0.66952801005335        0.02123780240227
H            6.05430368498610       -0.08857034173186        0.02407718724538
H            5.71159415592101        1.62313947742595        0.02664043305879
C            3.47238501316097       -0.87552326797563        0.00509465607977
C            4.15563348585712       -2.08198217833950        0.00595608830175
N            4.75610439785498       -3.06529824724844        0.00691023888712
C            0.72754498042406        1.42174766337305       -0.00532122925813
C            0.64517069389253        2.82795067502773       -0.00402307375246
N            0.56716546712638        3.97423393997825       -0.00306119345788
C           -0.45598696380271        0.62137370655132       -0.00998758936542
C           -1.65201515318976        1.31554098332614       -0.01539982411357
C           -3.00386026213372        0.92775908681749       -0.00909238355262
N           -3.90234709558573        1.94408303982557       -0.00860734021183
H           -4.88995107959159        1.75819259108533       -0.00612856974077
H           -3.58685880733214        2.89688306893026       -0.01588368099715
H           -1.53125315379107        2.39443079598034       -0.02051989886381
H            1.05964785983183       -2.48341818516951       -0.01081465600271
H           -1.07028234954656       -2.77875490187390       -0.01990359756075
