26
 energy: -43.218040576526 gnorm: 0.000307707960 xtb: 6.6.1 (8d0f1dd)
N            5.21470940660707        1.51100466236110       -0.09038837578288
C            4.24561060429461        0.89484250223358       -0.06256959398185
C            3.05548438835493        0.14077008216266       -0.01493788902101
C            3.14449980142088       -1.21849037379967       -0.26341841909293
N            2.24441782466506       -2.14990448002554        0.00819205430449
C            0.97673596057991       -2.02954854823677        0.25807705422405
C            0.08228239085301       -0.94990003713105        0.07751281301716
C           -1.27715319756626       -1.23599147749618        0.06643726233416
C           -2.22778681120632       -0.23060797546199       -0.00034130837902
C           -1.78497790738135        1.17018872909979        0.01633942192957
C           -2.95330550968929        1.97598611620739       -0.02145290042945
C           -4.04428260786392        1.14263783982852       -0.05323190441031
C           -3.62321382405261       -0.21774520693156       -0.04307104595857
N           -4.46608609574421       -1.29809157117676        0.00215407751740
H           -4.07741694774336       -2.18925583967413       -0.25829455041199
H           -5.41659352749483       -1.14235833217398       -0.29100795684735
H           -5.07454530062928        1.45167726160124       -0.08434661113901
H           -2.96882147008225        3.04947184510104       -0.02224433857595
C           -0.46034896594295        1.47130006743703        0.08626840566371
C            0.53667003827836        0.45539496243150        0.07858633072865
C            1.84458724601877        0.87582679600867        0.14907230322999
H            1.99344300690115        1.94732202672224        0.23305146729515
H           -0.13642397338807        2.50298991082781        0.11439246244184
H           -1.58421671979611       -2.27330906293994        0.10150592275120
H            0.52900210787373       -2.95893731495845        0.60563926642067
H            4.08479367783504       -1.61537603431793       -0.63358657242736
