30
 energy: -55.717528984615 gnorm: 0.000617279565 xtb: 6.6.1 (8d0f1dd)
N           -4.30453716550722       -2.60640942395011        0.43840447794894
C           -3.73115185413229       -1.61931033802963        0.29129119621331
C           -3.09116388722511       -0.39791019431632        0.10547399000856
C           -1.70042141320931       -0.13934184258752        0.08759025891441
C           -1.52689539116761        1.30091448399301       -0.14030893106680
C           -2.77114947068681        1.87067442135729       -0.25431214221295
C           -3.74720844782159        0.83466188587655       -0.10278434395146
N           -5.07426359223570        1.01038375760954       -0.14989941864997
H           -5.46703705464404        1.92450352281573       -0.28848329986885
H           -5.68849755328029        0.22328858450789       -0.02552874638339
H           -2.99802102468540        2.90627260136178       -0.42238880435189
C           -0.23031594251308        1.82618547845459       -0.15655068953014
C            0.88087747347934        1.02494269598480       -0.00271129946792
C            2.15002306281902        1.67369486090555        0.14656821460775
C            2.14093102413473        3.08533834816019        0.25801085225370
N            2.19625775420821        4.22757370794466        0.35798185234359
C            3.42455179246600        1.13759647543705        0.24317303300268
N            3.86516825969900       -0.09024887875392        0.04474107528339
C            3.16104359957715       -1.18258612158736       -0.12997304677091
N            3.89580664453173       -2.25955584622736       -0.48138763588629
H            3.49785521873536       -3.18084963156075       -0.53742620737837
H            4.89250711989333       -2.13856777427163       -0.53456963329621
C            1.73992168855542       -1.37647142160633        0.06205463048462
C            1.39082823034053       -2.74369878452507        0.15987196347099
N            1.20646291794542       -3.87600308708623        0.23438862498917
C            0.70838171284736       -0.43734235802886        0.10985772642809
C           -0.60636075203075       -0.95019091096892        0.21634610596521
H           -0.74382178947226       -2.01327951314375        0.35445273845600
H            4.22888791031705        1.83748851500271        0.45099377496350
H           -0.10345917933834        2.89401451153247       -0.26077325611853
