26
 energy: -43.219821687064 gnorm: 0.000863484925 xtb: 6.6.1 (8d0f1dd)
N            5.03240167168345        1.62525704880641       -0.00012414057279
C            4.05811824060769        1.01649441111012       -0.00136653420367
C            2.86776904272889        0.26289733417697        0.00588850872553
C            2.97189174363988       -1.12021472773410       -0.22405126303332
N            2.08038984381931       -2.02713584248252        0.03756744344128
C            0.79706188074380       -1.91691015023726        0.31376131565124
C           -0.10056116646731       -0.88616423635430        0.05083761328459
C           -1.48708217259994       -1.19095631891598       -0.01349304900597
N           -1.92320165132102       -2.48284770544054       -0.04173680939263
H           -2.90333570395750       -2.62339876465486       -0.21323326083647
H           -1.30557236144593       -3.22196377217157       -0.32424613335634
C           -2.42547194878396       -0.15559388077246       -0.02865222209638
C           -1.98378887608405        1.23522358399798        0.01450767854074
C           -3.13728865070108        2.03697049325486       -0.01046924590538
C           -4.23865900520469        1.19622063806507       -0.05667005415957
C           -3.81857181895723       -0.14154975447321       -0.07167657953148
H           -4.47681767285644       -0.99150906666954       -0.10124695858765
H           -5.26561045631902        1.51529823771247       -0.08436011506225
H           -3.15466357656732        3.11047235262652        0.00353231826738
C           -0.64211525121708        1.53650461721945        0.05707090596310
C            0.33762144358414        0.53388005878822        0.03400084846832
C            1.65702436976709        0.96423863380567        0.11318737566776
H            1.77878727597237        2.04036584277516        0.18862846204797
H           -0.32615505639782        2.57014982796308        0.08671675160290
H            0.39597263608645       -2.83810511158796        0.72929501046896
H            3.91621521145005       -1.50723554851308       -0.59528721358898
