31
 energy: -49.015484810662 gnorm: 0.000580003294 xtb: 6.6.1 (8d0f1dd)
N           -4.69395789341488       -0.41776129182242       -0.80736869302293
C           -3.39301182801839       -0.27049937832459       -0.39500832585593
C           -2.67471883376731       -1.42134375850373       -0.13296773501208
C           -1.35006251412192       -1.57150534966660        0.30279454838290
N           -1.03235906399083       -2.84932786246693        0.69467188419339
H           -1.79617438221020       -3.48540389461047        0.84658720212329
H           -0.22524411385798       -2.98554068303383        1.27663967267010
C           -0.29986193404396       -0.62170417681482        0.21596437321451
C            1.01265178349048       -1.13582825422762        0.15974925027218
C            2.09956251889090       -0.32457923117588       -0.00803150670712
C            1.92703377558975        1.11973481408876       -0.12097594286482
C            3.19881431997561        1.62580958545700       -0.31366730354789
N            4.13110607273707        0.63761524175288       -0.32291431295926
C            3.50154359608790       -0.51775823391957       -0.15433772731914
N            4.18625553516269       -1.72040425749283       -0.04296586268443
H            3.72327729034354       -2.50259501153332       -0.48498973143215
H            5.14921817497219       -1.62425478467570       -0.33405316466834
H            3.50373966058233        2.64808481131638       -0.44439702103129
C            0.63860348629601        1.63800025781436       -0.03361998331792
C           -0.47168194074245        0.82674687588221        0.14098140494020
C           -1.74423792531591        1.50254676539816        0.28454458318252
N           -1.69358471296818        2.79806061120910        0.70662471711661
H           -0.86603795286855        3.13828625255568        1.16129341128014
H           -2.55556582908891        3.28491780243055        0.87763388542814
C           -2.99011913161836        1.03815754685803       -0.07453557122453
H           -3.78864281716062        1.77231415464923       -0.06864548971198
H            0.51808893167076        2.70447252137300       -0.16678548607722
H            1.16609616053377       -2.20631414278937        0.15737901220253
H           -3.22667778931625       -2.34877305647813       -0.24381026045216
H           -4.96337735782074       -1.30323058999308       -1.20053668962678
H           -5.16130942300665        0.39014670024320       -1.18123785419069
