21
 energy: -40.600405297448 gnorm: 0.000654468499 xtb: 6.6.1 (8d0f1dd)
N           -4.21570356251800       -2.08685108302817       -0.53813780821464
C           -3.52833481657858       -1.19000608937744       -0.33569739432288
C           -2.69590828164218       -0.09306782675360       -0.09880175706774
C           -1.30385653790720       -0.11168939528977        0.10883771994113
C           -0.93268545152983        1.32616369746583        0.28208108689051
N           -2.02430670718367        2.06754998315280        0.24776691935362
C           -3.06738613755056        1.25049331269714        0.08333058864395
H           -4.06669933525821        1.64565115891687        0.07612976580650
N            0.32070768572790        1.65652299635568        0.16316804298802
C            1.29343395798921        0.77354196603165        0.02779463319710
N            2.51987113730459        1.26137687187756        0.01589682649671
C            3.66965055247779        0.69156138291738       -0.22397759275879
C            4.04153142406804       -0.64764921827871       -0.21310681403952
C            3.20481778518346       -1.72066143358967        0.11389676408640
C            1.83864661994719       -1.72137323127929        0.21889433877039
C            0.91819210141930       -0.66709283017309       -0.02323025263304
N           -0.35183144720564       -0.97845149358621       -0.06491708868425
H            1.36258761263580       -2.63514783899546        0.55212502910093
H            3.69420615140915       -2.66839571884228        0.30104171960055
H            5.09443731162863       -0.86030415405231       -0.33027471222929
H            4.46602068038243        1.42019889453179       -0.35083604762545
