25
 energy: -42.689358952824 gnorm: 0.000679716474 xtb: 6.6.1 (8d0f1dd)
N           -5.04669089099025       -0.34513782837015        0.02193121151296
C           -3.70518986563637       -0.23350188441092        0.00152239484951
C           -2.81119173967767       -1.25952548763911       -0.36244616772589
C           -1.53252756194506       -0.75321538803553       -0.22316853055227
C           -1.65699812233841        0.68159655310512        0.19984595926022
C           -2.99560333388947        0.95654461013763        0.32739213748986
H           -3.44131968979531        1.89361774529864        0.59867661303215
N           -0.59463751065323        1.47349901003156        0.22318896368830
C            0.59068764492777        0.95669217569239       -0.07089288875735
N            1.56737380602341        1.84259253282133       -0.15730368256528
C            2.85135091696864        1.68906389029190       -0.30778949861912
C            3.66070519286539        0.57627488672297       -0.10619020260658
C            3.23581863117720       -0.73833445566712        0.10999502334040
N            4.18002886857162       -1.66259230645034        0.45594680280804
H            5.15195353723017       -1.41885771697731        0.38196785923021
H            3.94510103362001       -2.63869015217312        0.41763167648708
C            1.92000066610303       -1.20279692719396       -0.02834694513515
C            0.73130331765281       -0.51734585485296       -0.25475030179448
N           -0.34717123269214       -1.29040854576913       -0.41520024766196
H            1.78134713876622       -2.27140957906078        0.10039458696483
H            4.72867084049397        0.75217031133434       -0.07477226830408
H            3.36339217394587        2.62295582204658       -0.52780076053854
H           -3.08200791211391       -2.24874224310122       -0.67641441423413
H           -5.61642595235226        0.45649626607324        0.22544720926742
H           -5.48935887836231       -1.18897749925418       -0.29443077693593
