35
 energy: -55.886519255596 gnorm: 0.000556255507 xtb: 6.6.1 (8d0f1dd)
N            4.99398210335767        0.12662475580858        0.87528597255874
C            3.68980224481071        0.09922118364324        0.43302583685764
C            3.15815057050568        1.33687511508547       -0.00232471056796
C            1.87069336604848        1.62093670777113       -0.36816355783673
N            1.65429008222148        2.87039315084484       -0.89047761452356
H            2.46010032410260        3.40427734423332       -1.16882297479919
H            0.80801625368936        3.02731644684656       -1.40875712693152
C            0.67129374881770        0.82708901319796       -0.14864843712032
C           -0.49157647130207        1.55166637450347        0.01306979069139
C           -1.73623148130716        0.93054944754165        0.06653715874948
C           -1.79455433325973       -0.51015472704086       -0.06292332336564
C           -3.17355497281841       -0.81835198113425        0.04671457570358
N           -3.75788503799818       -2.09357246086581       -0.00543446994237
H           -3.54594978955680       -2.57851964400765       -0.87129763187747
H           -4.76224779763456       -1.99870600469401        0.09564063493002
N           -3.90489833529715        0.27687311321605        0.23665643822039
C           -3.05295118335335        1.33351538465483        0.26943921971870
N           -3.54417532949141        2.62910073989415        0.40026198368085
H           -4.49429442598201        2.62643407009752        0.74477127626263
H           -2.94251756588352        3.23677909894880        0.93936007014759
C           -0.64595533151328       -1.27710420906082       -0.11869316101836
N           -0.81290340612821       -2.65309927001530       -0.03313924542062
H           -0.07969491232983       -3.14874940174774        0.45381620724597
H           -1.73946016758919       -2.88576623342968        0.30351976810487
C            0.63969132569271       -0.64283966914451       -0.17922947713862
C            1.79745253139127       -1.43846119114481       -0.23692203038140
N            1.69267786483742       -2.75917733237067       -0.64761224317730
H            2.56937249153502       -3.20782040929088       -0.86208225450546
H            0.94735841306360       -2.96130259489854       -1.29553146564305
C            3.09441437751602       -1.11914029770874        0.23848187319064
H            3.71871778038349       -1.98507064226386        0.43419147243593
H           -0.44650732663200        2.62471758739038        0.13428120051455
H            3.88291529958529        2.13638072711435       -0.10823264937019
H            5.33440288772516       -0.69305724755582        1.34973431563179
H            5.33660351839237        1.00291262688138        1.23161427287584
