23
 energy: -39.248398126794 gnorm: 0.000206159087 xtb: 6.6.1 (8d0f1dd)
N           -4.78205355650609        0.00014920685166        0.05396391904268
C           -3.43998431426456        0.00011965715093        0.04276087642422
C           -2.63184626260756        1.16483406338957        0.03622931043333
C           -1.31993308099646        0.75009394120675        0.02526545208354
C           -1.31996840825515       -0.74994848045407        0.02503390780339
C           -2.63190066305907       -1.16463058894473        0.03589004588905
H           -2.99059112088380       -2.17550482115156        0.03871956906473
N           -0.18786233414509       -1.43783812505003        0.01542237126702
C            0.94958017159625       -0.73915415472213        0.00597792208834
C            2.10585146286196       -1.53023202674396       -0.00394615303527
C            3.44683610716413       -1.17552083209339       -0.01523303240927
N            4.04363602282041       -0.00004557791351       -0.01995243971428
C            3.44689381414093        1.17545605316597       -0.01455901085155
C            2.10592547777470        1.53022628826619       -0.00319748563237
C            0.94961581082287        0.73919922858277        0.00627605407495
N           -0.18779427568482        1.43793344645175        0.01592935847962
H            1.88878596511986        2.59186283236581       -0.00108724411834
H            4.15807647881658        1.99736872539305       -0.02029004650830
H            4.15797801398123       -1.99746489007778       -0.02149534978140
H            1.88866119901145       -2.59185906474744       -0.00233497022756
H           -2.99048963995573        2.17572414583668        0.03934882430949
H           -5.29129521946057        0.86587371875629        0.05790838343370
H           -5.29133526799149       -0.86555282621880        0.05766526778434
