21
 energy: -44.617453029638 gnorm: 0.000633192865 xtb: 6.6.1 (8d0f1dd)
N           -5.24465511670515       -0.48600142404761        0.43998873486913
C           -4.10370516884630       -0.45039248431382        0.30057415136195
C           -2.71100462492062       -0.35048478554632        0.16348733254520
C           -1.96450706403369       -1.52001317629887        0.04386463724097
N           -0.70182123244728       -1.68102070107161       -0.22812317135688
C            0.33957258592355       -0.88661231061309       -0.16109699827631
N            1.53425398129930       -1.33204940108354       -0.37628857441200
C            2.64029036947682       -0.66678404097235       -0.34135465544188
N            3.91075118565296       -0.98947947266191       -0.24741893385074
C            4.54179891328031        0.12370468394329        0.13084339873073
N            3.75401650141297        1.16607624383692        0.41146863254654
C            2.53879772028462        0.78673113129808        0.09414658872567
N            1.34657678130142        1.24601039325584        0.27380283739735
C            0.23190516976906        0.62530009688269        0.10460781023587
N           -0.88694012511898        1.29409664899872       -0.09088737848057
C           -2.15616359592081        0.96344492405874       -0.03455082669842
N           -3.00420827055646        1.98178543706715       -0.22079349696760
H           -4.00001081541739        1.83466710619660       -0.20412254387916
H           -2.62578960087196        2.90184808264888       -0.37227909387985
H            5.60777289134163        0.16915455049094        0.23559607027174
H           -2.50775962830353       -2.45915214466846        0.09844575781787
