31
 energy: -53.814837465067 gnorm: 0.000492489214 xtb: 6.6.1 (8d0f1dd)
N            5.41599829665896        1.52057632499829        0.73021132938572
C            4.49126014129801        0.88416121194195        0.47258773454264
C            3.36279838411654        0.10792175281141        0.18057627695629
C            3.56053524571405       -1.19137074767732       -0.34718460986278
N            2.70184840923097       -2.14833490941852       -0.38435502917597
C            1.41321002209742       -2.14638665149449       -0.02461008882965
C            0.46313582289638       -1.15594782615619       -0.10175176263937
C           -0.91884689613114       -1.53073067263562       -0.05008079950965
N           -1.31504879328958       -2.83864819009337       -0.12450629283091
H           -2.28014146970550       -2.97506888358339       -0.38257627286899
H           -0.67189041404019       -3.50787158570593       -0.51230570722201
C           -1.87462173574867       -0.53762211299110        0.06683027574068
C           -1.52542403346063        0.86596073201727       -0.02707277931183
C           -2.75771392550184        1.54434888548116       -0.00080383761185
N           -3.79324280989044        0.68858565413192        0.10380265159225
C           -3.28948528452143       -0.54827461845044        0.14541116802665
N           -4.11332338574883       -1.65430370385371        0.23395632179705
H           -5.07948178818012       -1.37777566748654        0.35096132023280
H           -3.82761497202588       -2.33773407637705        0.92242796476664
N           -2.97841008379562        2.90684442243860       -0.07998264680513
H           -2.39590698980931        3.46493149799135        0.52947877490716
H           -3.96054964127438        3.11987107667400        0.03548141505622
C           -0.20361919693669        1.26968364640970       -0.18071032081176
N            0.06707345069285        2.59701530138954       -0.38165401639530
H           -0.71467932047014        3.14581878254455       -0.70272745450095
H            0.95447239818600        2.84439916099154       -0.78666552045678
C            0.83291243900263        0.29433865740545       -0.09849221297157
C            2.11073990205087        0.75217104715238        0.17289027263463
H            2.19121654809467        1.81515068320945        0.37904001549922
H            1.09600785743117       -3.14209902947837        0.27208082266368
H            4.54079311935520       -1.43119041458730       -0.74992170548948
