23
 energy: -49.628903220034 gnorm: 0.000625568898 xtb: 6.6.1 (8d0f1dd)
N           -0.86343425581600       -3.90263172516528       -0.97640405662609
C           -1.23187031987983       -2.88176825062457       -0.60974289422368
C           -1.72833439554555       -1.63689210002588       -0.14819152053414
C           -3.10137822547030       -1.41771059303950       -0.28639105836440
N           -3.83206035929877       -0.46683355064696        0.25264825124923
C           -3.38693812659524        0.64687360081939        0.77504163067878
N           -2.27700086817305        1.25422151800336        0.43657126381785
C           -1.11831470692699        0.77064230295550        0.10743382998490
C           -0.09264195733295        1.67021255999748       -0.32462517076775
C           -0.41672447712030        3.03745175716553       -0.48941324511081
N           -0.69198711292901        4.13642612323288       -0.65165889162905
C            1.20645844078734        1.21311134867767       -0.39562432323637
C            1.48017864702539       -0.16707796399232        0.09426026081400
N            0.50813316333630       -1.02947919799340        0.29367585042735
C           -0.73826121609752       -0.66839589962733        0.20550386849042
C            2.86011599067366       -0.20337530038353        0.28267744966817
C            3.64230521260984       -1.24840382677347        0.78273313237222
N            4.30130242510025       -2.08792355357023        1.20383586130906
C            3.33036418716505        1.04828177050584       -0.21505974230401
N            2.36218201146298        1.86234305935037       -0.59041504727117
H            4.35996926264671        1.34537866801211       -0.30216760355774
H           -4.07351783758534        1.21266283884242        1.39275971140598
H           -3.67199818733726       -2.16539728382104       -0.82771682869318
