31
 energy: -53.816920637966 gnorm: 0.000667344540 xtb: 6.6.1 (8d0f1dd)
N            5.11557021800771        1.31583441557198       -0.61809400721111
C            4.16403994511235        0.73187655446244       -0.33274130911941
C            2.99266220022325        0.03737751181357       -0.00201532070368
C            3.13437937781398       -1.12718618537086        0.80283961456368
N            2.33284650830258       -2.12681872988237        0.89517314589917
C            1.12587224197344       -2.25457474185096        0.31885937119568
C            0.17802477191804       -1.30895224093920        0.01558657701549
C           -1.17808041305368       -1.75751116815904       -0.21672124836219
N           -1.47560270671218       -3.05796971221793       -0.44180641438564
H           -2.43841561986793       -3.30237604443693       -0.58713290184071
H           -0.77202674092386       -3.72724683213523       -0.69170176910356
C           -2.19521327457475       -0.82736217683524       -0.10308330649618
C           -1.92141143005147        0.56731528928438        0.15042304674080
C           -3.17648844906572        1.17189668861776        0.22035734885206
N           -4.17312516737299        0.26027149611006        0.05614153562505
C           -3.60927675764473       -0.91655493400687       -0.13763843131354
H           -4.21970417238132       -1.78845067010594       -0.29145331964297
N           -3.49359028046147        2.50420018946997        0.44953776798420
H           -3.01301530499229        3.15888786670963       -0.15445088535027
H           -4.49672663573475        2.63299905398940        0.40654253745445
C           -0.59713036387103        1.04436846063505        0.18280469984479
N           -0.40450186959378        2.41324206329812        0.36236943599259
H           -1.18810000734937        2.84188304968303        0.83512436686037
H            0.47691631218294        2.66626052816686        0.78730866667209
C            0.44990183083666        0.14133574800360        0.01549770891627
C            1.76130689383296        0.61804663953583       -0.35289073658449
N            1.81378002255398        1.76428110014245       -1.06077121142371
H            2.70519252867153        2.13030733147099       -1.35318222656601
H            0.96700886825524        2.23790770042132       -1.32474371873308
H            0.85793473482568       -3.30330144862626        0.24845908911305
H            4.06526571254103       -1.23167318301707        1.35375365521095
