33
 energy: -52.453655675602 gnorm: 0.000902700301 xtb: 6.6.1 (8d0f1dd)
N           -4.95652878579220       -0.57297800922540        0.75511932090471
C           -3.68564589888558       -0.51283318148257        0.27505056789176
N           -3.05918048205813       -1.66967170390490        0.26346268109552
C           -1.78367963425228       -1.85244166043446       -0.06584584736659
C           -0.69033312970624       -1.00583254302899       -0.13717145105185
C            0.56565852477497       -1.65625660728265       -0.21872117034484
C            1.73026973635952       -0.96212997229712       -0.10683710735968
C            1.70670901650500        0.48003971711967        0.09987300686846
C            3.02857299646025        0.89563214389643        0.22120662852178
N            3.49913006903996        2.20263171961485        0.43064774542887
H            4.50996504555946        2.23818668628812        0.38286375019060
H            3.09628311014974        2.87568475135927       -0.21075508411063
C            3.86785726689319       -0.24445869979572        0.11936438918668
C            3.10051408306238       -1.37153315501490       -0.07555017532020
N            3.54987030809071       -2.66593342317819       -0.30081981381170
H            2.88398320985682       -3.38216529802124       -0.04995550382362
H            4.47438460472956       -2.84925339856609        0.06116230088363
H            4.94246198187030       -0.21647392944547        0.18490737119974
C            0.47392219783856        1.15595627519878        0.13343371386414
N            0.51213409532151        2.53310789628668        0.38845013770855
H            1.35234649199548        2.78458622286311        0.89178745240018
H           -0.31792659020943        2.88820919734171        0.84374794397736
C           -0.72248265726788        0.46346090009078       -0.08058546878834
C           -1.93793304432380        1.16895644010440       -0.39227106831771
N           -1.80954264794053        2.44786093898673       -0.86578867510613
H           -0.91085331193654        2.73107415582110       -1.21852862434655
H           -2.61985977545835        2.86737600363416       -1.28955502544768
C           -3.23840926266480        0.72944383321544       -0.22730666510170
H           -4.01638763651069        1.45208633867968       -0.44980976098632
H            0.57204425164861       -2.73463717099398       -0.31376395798374
H           -1.56826724669097       -2.91019222747293       -0.20111519308630
H           -5.32442241041772       -1.48289161880382        0.96934575038055
H           -5.59142819154038        0.19324076014645        0.62534825235045
