24
 energy: -42.978802380518 gnorm: 0.000506977195 xtb: 6.6.1 (8d0f1dd)
N           -3.42137383631898       -2.19079908980576       -0.06004943824435
C           -2.51662807277737       -1.17919138882825        0.00564535629831
N           -3.08827267552418        0.01646925362046        0.08938584626588
C           -2.48736320578725        1.19612946972033        0.01846191464609
N           -3.36189801882220        2.23321908257980       -0.02860737369139
H           -3.04139461538066        3.17967094418341        0.06037036792600
H           -4.33691684986478        2.02706979149606        0.09519487517221
C           -1.12109089183595        1.52092711345319       -0.04070859544169
C            0.00571789032720        0.71409166130821        0.07144295878642
N            1.17395835163819        1.36236250526109        0.07944070024758
C            2.29188589149669        0.70961586410969       -0.07146542855612
N            3.53900275411556        1.13951385626094       -0.00169640281339
C            4.31987858281059        0.04321121705148        0.00865819795642
C            3.61576851005180       -1.15560774643669        0.04443697345972
C            2.27505138126920       -0.79325498697583       -0.07849652653905
N            1.14022484253061       -1.42538149765875        0.06339677126660
C           -0.01336499830007       -0.75708637987761        0.05917053200815
C           -1.16189913911170       -1.53668389982442       -0.05797424687031
H           -0.96060565527139       -2.58790429755146       -0.22405478464294
H            4.01770250833651       -2.14854854763149        0.07370601195905
H            5.38916386710781        0.16495325826238        0.01873325540646
H           -0.89240342954131        2.56812137776772       -0.19420685069936
H           -4.38847581555785       -1.95625886463350        0.07554689889547
H           -3.12931121779039       -3.14585915915099        0.03579240550427
