25
 energy: -48.285190897571 gnorm: 0.000797243913 xtb: 6.6.1 (8d0f1dd)
N           -5.41654954883431       -0.40700643707757        0.18952512801077
C           -4.26815144422837       -0.43884985243261        0.18442185852735
C           -2.86261860935191       -0.45078807677874        0.14486144469094
C           -2.17368558295987       -1.58023637419701        0.64489804733964
N           -0.93710384817441       -1.92273656625371        0.48819137770273
C            0.11619806084006       -1.23055915924183        0.05305802904553
N            1.20563083674739       -1.86216450073035       -0.26609557007198
C            2.36433427180222       -1.19630203200849       -0.26066419600210
C            3.61816384977085       -1.57750720061466       -0.64259524033413
C            4.52738245993860       -0.51843632353662       -0.29794106128564
C            3.85908055944062        0.53479328782925        0.26278343918987
C            2.48005710880747        0.19253584396939        0.28967973714646
C            1.33575237415810        0.90940153991818        0.51884653238625
C            1.34083581117533        2.28014632215311        0.85732487942286
N            1.34410632740691        3.38855011202906        1.15061313182644
C            0.08543539355802        0.26786786783387        0.19405393893833
N           -0.94631740287340        1.00680697525030       -0.01939114856417
C           -2.20201789713363        0.70125327219606       -0.34338538207453
N           -2.87211372302206        1.64888375266701       -1.02292867296969
H           -2.41593187724977        2.52679403222427       -1.20518328949090
H           -3.86738432984674        1.57273010943474       -1.14876699308814
H            4.27332887069169        1.45758914080798        0.62087531846551
H            5.58797399534636       -0.56359587788020       -0.47228216382325
H            3.89154157142537       -2.50413767747290       -1.10789068272737
H           -2.77166724693467       -2.31544192388894        1.17592253853892
