24
 energy: -38.985377778519 gnorm: 0.000865112417 xtb: 6.6.1 (8d0f1dd)
N            4.77320920271880        0.13433884652520       -0.00834195939707
C            3.43399717476433        0.02119538467238        0.01223051529433
N            2.65336520180533        1.11131294340884        0.00897223255095
C            1.39252871396991        0.64831013129667        0.00304926112895
C            1.37506632699193       -0.82689627881035        0.00212517244833
C            2.69815583912768       -1.20358365069223        0.00797467804742
H            3.11942265570648       -2.18974579929120        0.00883322635246
C            0.14942173920895       -1.49205949007898       -0.00110001253485
C           -1.05035942689842       -0.80400578564681       -0.00113384488568
C           -2.23409411868781       -1.57461332122670       -0.00308946530274
C           -3.55513016780994       -1.19652267014680       -0.00170683496691
C           -4.07343508264594        0.10108709746384        0.00096468376914
C           -3.35342831087137        1.28293905817052        0.00236889885219
N           -2.05576025220907        1.51498217401700        0.00297335771748
C           -1.02983108259064        0.68704061086269        0.00177439983842
C            0.21260050386830        1.34810186668134        0.00327879621216
H            0.20619096236588        2.42623868899546        0.00479310218819
H           -3.93108307857139        2.20457755689743        0.00372587374210
H           -5.15188631763984        0.19354153354198        0.00190971304667
H           -4.28292203266708       -1.99877983875436       -0.00290505268756
H           -2.05878033877007       -2.64574619413930       -0.00552836919162
H            0.13844087421943       -2.57469367408193       -0.00293724398680
H            5.35538860245852       -0.67270116816122        0.12294082426258
H            5.17062317865603        1.05293794719653        0.07948828870186
