28
 energy: -46.655563769578 gnorm: 0.000675507605 xtb: 6.6.1 (8d0f1dd)
N            5.41842191916735        1.41911958527570       -0.09598768870358
C            4.41335105208084        0.86171260612575       -0.06387892935497
C            3.18814964099488        0.17219450756414       -0.03672595198908
C            3.22333746104245       -1.20787464276847        0.21717866773854
N            2.28018368946479       -2.07645801191376        0.00461331605863
C            0.99677979792908       -1.90004214043965       -0.25127715266519
C            0.16114204986562       -0.81764427655478       -0.01216398149524
C            0.67452298813291        0.57911932477078       -0.00868699024131
C            2.00840153138514        0.93963250753349       -0.11399518207633
H            2.18758648064888        2.00790318181684       -0.18781063583501
C           -0.25585213163612        1.63248043890093       -0.00392369731503
C           -1.60766574545728        1.40077288762464        0.01676007431121
C           -2.12249677231529        0.03323218380943        0.00214873596506
C           -3.52374311258594        0.12580122378694       -0.01273778024006
N           -4.43083491504949       -0.93055217348370       -0.04471602414792
H           -4.19982948744426       -1.65643803527967       -0.71011987128519
H           -5.38456492534297       -0.61533460685788       -0.16424794687894
C           -3.86526258027543        1.49241949253684        0.03591657273480
C           -2.71762670410716        2.26429659487722        0.05900578867312
H           -2.67430845500148        3.33654118859428        0.09118142155422
H           -4.87478342328312        1.86490075042541        0.05132531394653
C           -1.24422521799276       -1.04465813987138        0.05098198445424
N           -1.74548021793779       -2.31605511149328        0.16119777998452
H           -1.12941477967027       -3.03699678324040        0.49847509327321
H           -2.69105766719145       -2.37153524438904        0.50519551996623
H            0.11343364683448        2.64853973563681       -0.00324079273378
H            0.54149984257049       -2.81051731092931       -0.63427208844156
H            4.15613587737285       -1.63583784445756        0.57222227484375
