24
 energy: -49.351958984265 gnorm: 0.000901915587 xtb: 6.6.1 (8d0f1dd)
N            5.90427289899150        0.06523990955886        0.43453817657384
C            4.76881758860335       -0.03781381016098        0.31285068832512
C            3.36607773700208       -0.16519706744309        0.19998667765661
C            2.84268368836057       -1.47659370213593        0.26640704912516
N            1.64727206450700       -1.89010555077521        0.00484174677743
C            0.47764744092866       -1.28907141522462       -0.03775480760978
N           -0.57190951534779       -2.02686598778268       -0.31010837418967
C           -1.79621046667142       -1.57691003369234       -0.36298464312530
C           -2.03222601671775       -0.14099531696907        0.01926970168232
N           -0.99176798376550        0.60209409923127        0.23287416003029
C            0.23705497109870        0.18581287520086        0.13719454381405
C            1.26120884344603        1.13336349471316       -0.16381343775585
C            0.78531221850366        2.38570889226963       -0.62986450506964
N            0.41529304627076        3.40460136218372       -1.00033793912792
C            2.63866890696714        0.98538449496110       -0.11373071549838
H            3.21462576609560        1.87706994117019       -0.33630814320802
C           -3.40694697318481       -0.00804009665387        0.25062835184670
C           -4.06419903754577        1.15363109515453        0.67145835414770
N           -4.61710448811567        2.09499007759732        1.02514397529102
C           -4.00493679855093       -1.24945070930776       -0.05018678363407
C           -3.03697460540279       -2.20102861216583       -0.36837334004324
H           -3.21176432708007       -3.23315340973281       -0.60118985167657
H           -5.06229564506498       -1.43504911220539        0.00800428359397
H            3.55474126737432       -2.27938848378978        0.43511778507339
