24
 energy: -38.979132338390 gnorm: 0.000610996610 xtb: 6.6.1 (8d0f1dd)
N            4.76901202573725       -0.00027090179998       -0.02399503187064
C            3.42198737478390       -0.00020905894872       -0.03165166611593
C            2.61560713843877       -1.16305773034283       -0.02535491824411
C            1.30114661630247       -0.74830319757967       -0.01545335071202
C            1.30121261581141        0.74805753802967       -0.01484347939052
N            0.16997712536582        1.43381414199217       -0.00919726342893
C           -0.97288599754381        0.73608207944382       -0.00435394556105
C           -2.11329371419718        1.55123263422789        0.00212261070428
C           -3.46032904702965        1.24685884084446        0.00554948976217
C           -4.07015135471123        0.00010307400090        0.00557804049370
C           -3.46043809221988       -1.24670550383660        0.00458678581180
C           -2.11342923860258       -1.55119359789394        0.00091364456888
C           -0.97295108565390       -0.73613733375547       -0.00493763566855
N            0.16985137981223       -1.43396510264149       -0.01035025582396
H           -1.85718120461803       -2.60466875916254        0.00149478853121
H           -4.13055801057366       -2.09788615383411        0.00682766814127
H           -5.15326911817162        0.00014972588105        0.00735777241135
H           -4.13037495482221        2.09809580658260        0.00844370743119
H           -1.85695438870212        2.60468480565057        0.00352631486203
C            2.61570900119699        1.16270499876543       -0.02440268027679
H            2.97490998148070        2.17360178519034       -0.02671451643592
H            2.97471962197766       -2.17398370680978       -0.02849361138492
H            5.27356877865953       -0.86501376084884       -0.10356676896881
H            5.27364526157915        0.86449232764511       -0.10285074583577
