21
 energy: -45.392762353682 gnorm: 0.000699029254 xtb: 6.6.1 (8d0f1dd)
N           -1.11437198650447       -3.46913512377688       -0.79137422610679
C           -1.45110900678893       -2.42233380748982       -0.46773659560648
C           -1.87927103929940       -1.14105643922639       -0.04437291694115
C           -3.23095565895132       -0.85336019865568       -0.15926696371637
N           -3.88127904973941        0.21805405399721        0.25535365051523
C           -3.35632988526146        1.38522727950116        0.51558044654101
N           -2.20373106254080        1.85137114408262        0.10853920018966
C           -1.05498545822740        1.25598859646157       -0.06162677458896
N           -0.00857645393267        1.93134972821905       -0.46520605782295
C            1.20125471940218        1.45796687307391       -0.54579546500092
N            2.35647856293807        2.05584334362869       -0.68734025444960
C            3.33030709263043        1.21217459757401       -0.31849441003499
C            2.83393776933295        0.01326041730559        0.20626056797248
C            3.55575519997237       -1.06261523767640        0.73720144167456
N            4.15981604172967       -1.92781464982979        1.18613525593256
C            1.44179299060940        0.06940091755216       -0.00897711432576
N            0.40046469440481       -0.60954036644256        0.33366153787559
C           -0.82285758300902       -0.21033960993207        0.23682166422372
H            4.36014274432715        1.50001296015617       -0.41761870500912
H           -4.01070206444844        2.11275572466499        0.98323329725435
H           -3.86719365314057       -1.62112136838822       -0.58765775587831
