27
 energy: -52.539984327044 gnorm: 0.000894127229 xtb: 6.6.1 (8d0f1dd)
N           -3.62152982381201       -3.08723583152162        0.69467944760305
C           -3.26201848077058       -2.02344662652998        0.45941605337558
C           -2.85937947598707       -0.69940455503805        0.15976396728323
C           -3.82522238477699        0.28652664414228        0.43131393105755
N           -3.87440093681683        1.52260650220396        0.00131546375405
C           -2.89140825468634        2.15438195291551       -0.60505289279649
N           -1.60866496495560        1.95573921750616       -0.46734985948572
C           -0.93751979423937        0.87344330388178       -0.15909963985103
C            0.44257413792012        1.02145975940709        0.10646281675175
C            0.95859110043053        2.31890534306622        0.31889490186022
N            1.37260692955593        3.37039566775486        0.51145944337538
C            1.28162534381095       -0.08718024056912        0.03983203094240
C            0.72473155856813       -1.41612861781103       -0.29242128598998
C            1.77403860278076       -2.30907865965609       -0.37799889133453
C            2.97229765849917       -1.60651737002193       -0.10627464286582
N            4.20527014677959       -2.11527122191961       -0.08379917632843
H            4.98897375709190       -1.51747815370371        0.12392780768075
H            4.36430399456110       -3.09146900599249       -0.26420549085918
C            2.66398338051245       -0.23022819110651        0.15202897281014
C            3.63679851944177        0.72208028733820        0.45507037665045
N            4.50903159670834        1.42941047929606        0.70209493626084
H            1.70742826060471       -3.35589199131240       -0.60318978533429
C           -0.65579696293129       -1.58548113326268       -0.37674327255437
C           -1.50489177508640       -0.50588077277445       -0.21275296806845
H           -1.06508032858176       -2.57719728546696       -0.50605803781888
H           -3.17037243755502        3.04749742232377       -1.15266664720399
H           -4.70189223896618       -0.02647692234942        0.99019635338586
