26
 energy: -48.032218415686 gnorm: 0.000986887355 xtb: 6.6.1 (8d0f1dd)
N           -3.26996298885573       -3.12126691800840        0.00166502727040
C           -2.95505995857069       -2.01810190596021        0.00056350547255
C           -2.66307629644317       -0.62967397485794       -0.00007319825385
C           -3.84705173531747        0.14673101647114       -0.00191442136589
N           -4.04084367380337        1.43259687033787       -0.00311188182919
C           -3.09750580563879        2.36901502835186       -0.00289465308449
C           -1.72334800260139        2.27450972165953       -0.00143457067449
C           -0.85690486819524        1.15795161712487        0.00035767696569
C            0.50391044419806        1.43329045022934        0.00153879338635
C            1.44251125803716        0.41131602748167        0.00332888331260
C            0.99335710025724       -0.98664226156452        0.00400573222142
N            2.03202929313561       -1.83542208060763        0.00576479566303
C            3.13020070980826       -1.07633166980560        0.00625107737112
N            4.35554007297633       -1.59995649813066        0.00792827463309
H            4.45597732455600       -2.60033975145533        0.00889990111006
H            5.16730186697175       -1.00669653270298        0.00827543504489
C            2.83152081273512        0.34241668908614        0.00474929168349
C            3.77955492117777        1.35659567569976        0.00471055242367
N            4.59596383916287        2.16847452573065        0.00533272901953
C           -0.35291851932252       -1.27347596106615        0.00282330006575
C           -1.30781457077170       -0.24722910403416        0.00100782267920
H           -0.67009609278549       -2.30491776074634        0.00330360872777
H            0.83929927790147        2.46088103017238        0.00102980408865
H           -1.20650877040694        3.22761441354602       -0.00170292051720
H           -3.51771286230065        3.36994720286293       -0.00412709574569
H           -4.77191467040445       -0.42558671101424       -0.00237686416848
