27
 energy: -46.168174910375 gnorm: 0.000457957071 xtb: 6.6.1 (8d0f1dd)
N           -3.82156393682238       -2.21995428297825       -0.06282712768376
C           -2.93214564553102       -1.18376404193893       -0.01807958461851
N           -3.52444207347074       -0.00025428285980        0.01205434003070
C           -2.93212928142498        1.18336833496355       -0.01286772947658
N           -3.82152780709028        2.21975804032559       -0.05312396500280
H           -4.78874536762850        1.98988272198645        0.09255987531044
H           -3.51700635246894        3.15390829075263        0.15160019511707
C           -1.56845433700452        1.51899947754881       -0.03087778427136
C           -0.41625898979748        0.73893134715692       -0.02945243471099
C            0.80630479174420        1.42546112109005       -0.02598168251590
C            1.99704443843178        0.73757128844782       -0.01986052054173
N            3.26680773713260        1.15401035892377       -0.01218392089901
C            3.97035905869203       -0.00026647767533       -0.00974045078719
N            5.30913411333695       -0.00035479571810        0.02378527838497
H            5.79395583971809       -0.87338946249767       -0.07372787806763
H            5.79397380761913        0.87310601089195       -0.06973942501970
N            3.26679118445497       -1.15451132680117       -0.01745564628696
C            1.99703595650117       -0.73802328867452       -0.02322949852214
C            0.80628384993868       -1.42585824694724       -0.03247503904721
C           -0.41626827757303       -0.73929990140378       -0.03279778607547
C           -1.56847775025969       -1.51933422350204       -0.03767704552526
H           -1.38462342492306       -2.58856921427423       -0.05187946852008
H            0.81048863159252       -2.50577891310457       -0.03718287285713
H            0.81052874624514        2.50539189852870       -0.02578126803337
H           -1.38457982648074        2.58828409382788       -0.04027678856626
H           -3.51704600489175       -3.15499503878927        0.13779677773215
H           -4.78876631144011       -1.99070127057929        0.08393762285363
