25
 energy: -53.094215713941 gnorm: 0.000722511729 xtb: 6.6.1 (8d0f1dd)
N           -1.67149178682910       -3.80167327285857        0.91706639147512
C           -1.88020146646114       -2.72728946425957        0.57734234307263
C           -2.19487094804866       -1.40993313284682        0.16036457155517
C           -3.51779085728446       -0.99236361501139        0.35750079477609
N           -4.12964032308230        0.04532709792613       -0.16025001235739
C           -3.54206135646681        1.05659183058725       -0.75788268771995
N           -2.34465835454666        1.51113014835865       -0.50613653068699
C           -1.25943756293273        0.88351091742131       -0.14733028948405
C           -0.12578049523772        1.64108907819872        0.25912219989520
C           -0.25759069785016        3.02682985552733        0.49856620133118
N           -0.36956461068739        4.14601011633066        0.71536004019253
C            1.10691875054067        1.00982661736995        0.26441629382468
C            1.17220421277380       -0.40849908128847       -0.17773839996244
N            0.08805930883060       -1.15730095455942       -0.31937952967032
C           -1.08708543411657       -0.59554434391497       -0.21230295408664
C            2.52066657248161       -0.67841834867149       -0.31490946131270
C            3.18953496774597       -1.82260644880215       -0.74078925230130
N            3.81123865015430       -2.72426737388046       -1.08852965069317
C            3.18656928840246        0.54039230135605        0.12071878152199
N            4.49995975399450        0.70573973826040        0.18758542059672
H            5.12485264454467       -0.03607061130055       -0.08225511485212
H            4.86367058320256        1.58677530872387        0.51183710949337
N            2.32892750193465        1.51425899090826        0.44452249682404
H           -4.16858765970532        1.68207363362411       -1.38247930755090
H           -4.16278147955793       -1.65049305689660        0.93098463141849
