23
 energy: -44.838806048078 gnorm: 0.000705352904 xtb: 6.6.1 (8d0f1dd)
N           -3.48522629188803       -2.76102817415817       -0.20899986211532
C           -2.98874649491622       -1.72809694380363       -0.16281822745933
C           -2.43009263461821       -0.43058627494988       -0.07684490821385
C           -3.26687723614786        0.62912413616256       -0.59295420935848
N           -3.21646543898958        1.87600503497562       -0.32261071081119
C           -2.27825341609027        2.45981814560321        0.45593874070023
N           -1.03888726141549        2.16765199263912        0.52597435289758
C           -0.39945681849306        1.02850146214958        0.20090014227273
N            0.87958015493724        1.11866086665872       -0.01766767144993
C            1.61063797472184        0.00135254613852       -0.06726656826275
C            1.05140880226986       -1.32906166644041        0.23535534111063
C            2.14713176455479       -2.25955623543600        0.23479026063453
C            3.27795367677908       -1.57034032068528       -0.05190280336244
C            2.97244115214291       -0.15759067509016       -0.23404743974419
C            3.92369863634033        0.82523326685897       -0.50821810775596
N            4.73268958449633        1.60754305160575       -0.74047072996968
H            4.27277438599394       -1.96910419684223       -0.13583014279984
H            2.05582675129144       -3.31378624176637        0.41399253521292
C           -0.28289574110464       -1.45091048219697        0.45031800873881
C           -1.09579086113629       -0.28880944099918        0.27039947860516
H           -0.74983935131289       -2.39944141156330        0.68004431443491
H           -2.60481142311002        3.36600154052567        0.95377972872415
H           -4.05256116080584        0.32313404781399       -1.27880079232795
