26
 energy: -42.423059027740 gnorm: 0.000485983757 xtb: 6.6.1 (8d0f1dd)
N            5.12771620709684        0.42925412686617       -0.02685765106338
C            3.78917554922762        0.25106933850591       -0.03652288906333
C            2.83131239919835        1.27838826167899       -0.01157516421670
C            1.58073265396565        0.67967115711277       -0.00094184621756
C            1.79038528243316       -0.79803422107875       -0.01725762819400
C            3.14758379614803       -1.01907716073032       -0.03899736326248
H            3.65286533462632       -1.96713801470417       -0.05576589603968
C            0.66117243006729       -1.60280120063489       -0.01035652697904
C           -0.60491406419281       -1.02664779166910        0.00617119055743
C           -1.72257954566359       -1.87918792304515        0.01418938267918
C           -3.07508942219275       -1.60336035886550        0.01703743495871
N           -3.75117374106186       -0.46715803396576        0.01207642352137
C           -3.23432705727383        0.75007746325660        0.02198331540090
N           -4.17727165218334        1.73500741020758        0.06880877944406
H           -5.13366853460487        1.45299979966058       -0.05646452408891
H           -3.92489945115802        2.68815387541373       -0.11708267613635
C           -1.88573281308901        1.16571373446500        0.02585934000763
C           -0.69886548724756        0.45073322844376        0.01542325123408
N            0.38708687308324        1.23535697098152        0.01309841779966
H           -1.73114484132883        2.23865234557733        0.03537788758016
H           -3.73849360210284       -2.46460498074868        0.01604342843890
H           -1.47555514412795       -2.93595874013921        0.01245892754005
H            0.75452823177589       -2.68193707651592       -0.01824477140094
H            3.03646345746270        2.33076852692664       -0.00354492863051
H            5.73768506290388       -0.35675721426681       -0.16463033945245
H            5.50651950943833        1.35314395446769       -0.13457768031685
