26
 energy: -42.415087746055 gnorm: 0.000521079503 xtb: 6.6.1 (8d0f1dd)
N           -3.31384719936104       -2.35368800377370       -0.20472293206741
C           -2.46450183766676       -1.28031351577191       -0.10157846225297
N           -1.20782793882608       -1.59145635883731       -0.05759469029444
C           -0.11751550691687       -0.78423451148454        0.03326208519585
C            1.08533373154030       -1.41304343422815        0.22942175824381
C            2.30241025041381       -0.70933647401759        0.16711406084082
C            3.61233731690450       -1.07293711621189        0.31748547107260
C            4.43703969831711        0.08454354834280        0.06394675823532
C            3.66085670704044        1.15282922827393       -0.24068180524784
C            2.28411292056902        0.71410970451765       -0.19126416737979
C            1.11624234180459        1.36020323111149       -0.38909618976619
C           -0.13932062449877        0.68104151194399       -0.17770911376915
N           -1.15479690563875        1.48507153093920       -0.13471552615900
C           -2.46088754883986        1.20852342204163        0.10527493070949
N           -3.18363497290012        2.35522295908451        0.28415847072824
H           -4.10690585315156        2.30406567068745        0.67522476929212
H           -2.65306184425351        3.19630896399553        0.43086753033414
C           -3.09713913860165       -0.00581449982326        0.06128986199473
H           -4.17535865410578       -0.00993571098827        0.15826167450901
H            1.06362234658210        2.41200777059784       -0.63078848618201
H            3.97784732074941        2.15092997867153       -0.47599945451941
H            5.51211712535935        0.07390336612192        0.11561166368154
H            3.98805843954002       -2.04577972980258        0.57526610580455
H            1.08396902173747       -2.47790853411476        0.40634212553846
H           -4.24449616327044       -2.20721803893845       -0.55389415108663
H           -2.87077168422697       -3.22732598213710       -0.43528560395583
