31
 energy: -60.231016736196 gnorm: 0.000550635616 xtb: 6.6.1 (8d0f1dd)
N           -5.91367470090224       -0.56395547105506        0.00400530204544
C           -4.76551203436625       -0.50478500625669        0.00300056996975
C           -3.35417721740747       -0.45215782379621        0.00137243619998
C           -2.70987398964677       -1.69579178543112        0.00143462850265
C           -1.31144107730784       -1.92873084972773        0.00010487680975
C           -0.22979529797850       -1.08570977784234       -0.00029298157914
C            1.06141637325363       -1.71448633225798       -0.00098688525356
C            2.17482260732708       -0.94719523097582       -0.00061161942144
C            2.03543157090918        0.51080011590351        0.00052368658700
N            0.84931713181620        1.10636958628247        0.00059465229497
C           -0.25043274657381        0.37969589868300        0.00005033657297
C           -1.42912381888003        1.18150223803768       -0.00061522869197
C           -1.13554956527396        2.57020852912550       -0.00160516130707
N           -0.99876884562125        3.70990897562985       -0.00296819341138
C           -2.79343333291393        0.86231749868544       -0.00019753957055
N           -3.67525692474903        1.88780883286664       -0.00112810072540
H           -3.33854970736431        2.83614901536452       -0.00178366176389
H           -4.66629054676327        1.71887670715406       -0.00044103047037
C            3.31692803573516        1.05347503110038        0.00139752791142
C            3.67075185506827        2.40432589411740        0.00309680806058
N            3.99743561972347        3.50578317900287        0.00395407102027
C            4.25621069528525       -0.03221073915592        0.00060496492575
C            3.59193958471739       -1.23534399460437       -0.00065082647484
C            4.12683486693351       -2.52421203143671       -0.00180626330993
N            4.52301888473091       -3.60345258929946       -0.00250595326392
H            5.32389485123978        0.09800722530534        0.00099990334581
H            1.11872550986508       -2.79526654848972       -0.00152392196649
H           -1.05985836766120       -2.98544271400486       -0.00034741349306
N           -3.47857054676957       -2.80925335751241        0.00267055433864
H           -3.05775947111961       -3.72087496092591        0.00301985098002
H           -4.48228195070589       -2.74255510538635        0.00381810533801
