34
 energy: -52.170063045834 gnorm: 0.000419037020 xtb: 6.6.1 (8d0f1dd)
N           -4.86812947491482       -0.39575722087546        0.38198364141770
C           -3.51479876647004       -0.23002996374104        0.19213272678809
C           -3.11361989340960        1.02312792540091       -0.31234177200571
C           -1.84406692420703        1.53416141295899       -0.38676420347162
N           -1.73983375453715        2.83235601749242       -0.82092504139586
H           -2.55399734201494        3.24628808222615       -1.24316402548817
H           -0.84889578126141        3.14157542528128       -1.16902782929316
C           -0.59494433197288        0.90888521505256       -0.00821150279778
C            0.44451767436539        1.74965344417660        0.33447027170098
C            1.75719447730158        1.28911677290765        0.44272850620905
C            2.03792124077202       -0.07049212270702        0.02018533741459
C            3.44782905362441       -0.22460862232719        0.04312529693152
N            4.14159597631093       -1.41555639904427       -0.30953606475261
H            5.13988686732895       -1.23322752803734       -0.33794543939788
H            3.97483710799929       -2.15422639893811        0.36918859322710
C            3.99500198340693        0.97521785233601        0.46374465692607
C            2.96958842993323        1.90867037275208        0.69989641613264
H            3.11247995819069        2.92559657612065        1.01895100482368
H            5.04943689323462        1.17050308664557        0.57571807597340
C            1.01581137493646       -0.92617926715708       -0.33613848524422
N            1.36183181521157       -2.19109242030210       -0.81674010650035
H            2.34651459811271       -2.22130216553166       -1.05996133407473
H            0.76379166151502       -2.53132519997685       -1.55715568717345
C           -0.35104227445232       -0.53367942134739       -0.13774704360451
C           -1.33021804735318       -1.51167955321847        0.10874235346913
N           -0.96468912068714       -2.83645911936196        0.15788286832125
H           -1.61301893001008       -3.45873030782090        0.61165292234339
H            0.01584877588162       -3.03978825952516        0.29229804558744
C           -2.69910150105899       -1.31562766701684        0.40473907515236
H           -3.20839470620392       -2.20352833123642        0.76695681209765
H            0.25285996024490        2.79742404588734        0.52006632884870
H           -3.92005503294893        1.68525497038282       -0.60777971554242
H           -5.42545099732613        0.43413968554483        0.49383362784733
H           -5.16657628464133       -1.19293673079918        0.91840332772978
