32
 energy: -59.166859666319 gnorm: 0.000734828973 xtb: 6.6.1 (8d0f1dd)
N           -5.80964322194330       -1.04630576670185        0.10739148788293
C           -4.67820517310648       -0.84198185427417        0.06038535943886
C           -3.28941180326796       -0.60392258767700        0.01320956766321
C           -2.47616034920685       -1.76376672811144       -0.01711112567992
C           -1.08572201285003       -1.80521650939823       -0.03809119512210
C           -0.08666091295629       -0.82858823406912       -0.02612702900151
C            1.22525653370007       -1.31654513639454       -0.02858590613418
C            2.31176924819779       -0.46853201998997       -0.00888875690712
C            2.09167817361723        0.98190787790252        0.01011620873586
N            3.24948217900103        1.65676554081113        0.03433990502091
C            4.21417300445412        0.72632796176909        0.03122810443563
N            5.50788732194289        1.05378833878771        0.05330936461417
H            6.21487393432087        0.33930475951067        0.04971398137606
H            5.76483176150838        2.02514437026285        0.07176117069944
C            3.70016637907918       -0.62108975079004        0.00385139594425
C            4.47382502737557       -1.77094045124119       -0.00583456131603
N            5.15139914020037       -2.70306372630662       -0.01286892751195
C            0.80679903316843        1.47722399743802        0.00204795259926
C           -0.30887765957171        0.62790300771970       -0.01512677627333
C           -1.57238438511649        1.25687765124387       -0.02653648372480
C           -1.54415670998302        2.67488163213913       -0.05741060178877
N           -1.61650762463535        3.82191107714658       -0.08855177752858
C           -2.90160260939596        0.75022145296381       -0.00352727109600
N           -3.90750686410170        1.66096104365635        0.00386811286709
H           -4.86492477251485        1.35589865812838        0.02839108069505
H           -3.71020103996680        2.64629759257984        0.00830442870719
H            0.67222412369516        2.54727232850323        0.01337423286183
H            1.38881971908411       -2.38496881886836       -0.04118743975273
H           -0.69462655209126       -2.81743243545933       -0.05922366090875
N           -3.11766373067955       -2.96423560004548       -0.04426323300042
H           -2.58926940463856       -3.81569609385186        0.00776393185205
H           -4.11821464581877       -3.01357742618494        0.03464808045235
