24
 energy: -49.351546845640 gnorm: 0.000735092296 xtb: 6.6.1 (8d0f1dd)
N           -1.58878962560716       -3.31483936890345       -1.03450990160112
C           -1.72754847882530       -2.26264607994948       -0.60239929282761
C           -2.02349133729525       -0.93560320627174       -0.19339669952549
C           -3.38592356964163       -0.66731517667651       -0.12817128269670
N           -3.99215710913492        0.37375668910245        0.41424340331986
C           -3.52726847337031        1.56697377724483        0.59432877182247
C           -2.31658783116037        2.10617818162852        0.10717316983842
C           -1.13878188676841        1.42970758570913       -0.15070450590011
N           -0.10997984643674        2.26199046199479       -0.43397832835234
C            1.09790697318899        1.80624054999470       -0.37111755735095
N            2.23360477748214        2.52150702660921       -0.56812131294746
C            3.22443089538456        1.70350395393148       -0.32387413926849
C            2.81120595441406        0.37285663142985        0.05283448675311
C            3.66969991023521       -0.68238961749611        0.37128405223490
N            4.39962686220986       -1.52946432248688        0.63066061828739
C            1.43005305337158        0.40783598539250        0.01299894917414
C            0.36669776020774       -0.49639860933717        0.15427620492553
C            0.66035904304294       -1.83685826360353        0.50365253624285
N            0.96208383327030       -2.87662776132445        0.87898974979389
C           -0.94051929579721       -0.02364684911983       -0.00420181138445
H            4.24533929195323        2.03236818592969       -0.40845581538450
H           -2.23819889592993        3.18322032705530        0.03143564443626
H           -4.19934514730443        2.23875290613381        1.11834936875764
H           -4.06448943158454       -1.45735672118070       -0.43284263985427
