24
 energy: -48.580852782871 gnorm: 0.000866104890 xtb: 6.6.1 (8d0f1dd)
N           -2.31498765634180       -2.95967876343910       -0.90424531645113
C           -2.16507620884601       -1.88379151071649       -0.53785985304251
C           -2.09099427858899       -0.51313856500252       -0.17764517160430
C           -3.28364590876202        0.19762709622300       -0.44004970061547
N           -3.64490600216214        1.36991545567654        0.00261603144300
C           -2.83816622267891        2.23263220937445        0.59326784280716
N           -1.56286811342010        2.37525715665784        0.39052068230986
C           -0.64289533390205        1.50314375605969        0.03739559208145
C            0.60808135842501        1.99645845847925       -0.34386080178115
C            1.69670203962807        1.15475079799726       -0.28692587747682
N            2.99587512696578        1.38091951210916       -0.47475296081559
C            3.58090684306790        0.21850067419031       -0.12777834639270
N            4.89159722285137        0.03304943597947       -0.17546304528426
H            5.26733495137932       -0.85965196209244        0.09409976592788
H            5.48631924638640        0.78264414173879       -0.48301142630621
N            2.74468544788794       -0.78097383097183        0.29384275907398
C            1.54846307916978       -0.24270591764958        0.20001149199675
C            0.27338524637688       -0.78717002518147        0.41372980216803
C            0.16294822808144       -2.12578915811212        0.84625593607673
N            0.11548796831506       -3.18851872847405        1.27415526976817
C           -0.83949371860433        0.02786894595398        0.18329920118595
H            0.71992366296555        3.04899435038638       -0.54679822798284
H           -3.32088374467444        3.01306263893172        1.17067907778643
H           -4.04972111684137       -0.32782635906915       -1.00199614208065
