30
 energy: -54.930179914588 gnorm: 0.000874527737 xtb: 6.6.1 (8d0f1dd)
N           -4.70233645891800       -2.27379271662586       -0.98557814833020
C           -4.00655541970981       -1.41275160545987       -0.66470087654919
C           -3.21989656292356       -0.33981148179833       -0.26744220191513
C           -1.82349812319542       -0.27818728886192       -0.15109730057419
C           -1.48384399460411        1.08079067884358        0.31624135888110
C           -2.66243921138647        1.79060232359160        0.46476772116036
C           -3.73282297207776        0.93971612907530        0.11196717845830
N           -5.03507111219958        1.25648165341856        0.12250646961296
H           -5.71920479274039        0.56888521226847       -0.14409153799677
H           -5.33758199919434        2.17599765561691        0.39059327681537
H           -2.76208990548072        2.80928803992703        0.78788191459811
C           -0.14916112362626        1.43620830814941        0.46621892426667
C            0.86470102977248        0.52218491886555        0.21116407057220
C            2.18558766624890        0.98388070598799        0.02776137520064
C            2.40100807872135        2.37519757875272        0.05821085315605
N            2.64901532199708        3.49898266221157        0.08738865377816
C            3.34834723100381        0.21530498994182       -0.30286007991951
N            3.54856853627794       -1.06861100604933       -0.08625096093634
C            2.62536823251083       -1.95104183096892        0.27949568122822
N            1.31905626116665       -1.92674323313795        0.07445305574332
C            0.50222018585078       -0.90229603724186       -0.04236975848824
C           -0.83337144438914       -1.21776123528007       -0.32564956506228
H           -1.06983534447674       -2.23977894089270       -0.57902376223223
N            3.10169467546376       -3.09698586676040        0.81553680349734
H            4.09275824363278       -3.25797183151388        0.79900095098179
H            2.46977832640738       -3.87135139900625        0.91486051607529
N            4.40635970117609        0.86620847664041       -0.83787427889879
H            4.41289084397061        1.86862032117094       -0.90981171623910
H            5.25790463060744        0.34924751021889       -0.96345944259658
H            0.10512409611478        2.45646124041626        0.71733735931271
