29
 energy: -50.373148939708 gnorm: 0.000966103543 xtb: 6.6.1 (8d0f1dd)
N            5.36233339873768        1.10788185310400        0.87558553403637
C            4.37999625628030        0.59680290405661        0.56207755720270
C            3.18064559671790       -0.03176650072472        0.19688497891509
C            3.25489678392960       -1.30874754163913       -0.43147235273270
N            2.31152253779150       -2.16939903242705       -0.52448076862473
C            1.03780860486447       -2.07585173771551       -0.11443343563518
C            0.18430781744291       -1.00207230331280       -0.11132391784722
C           -1.22992776394856       -1.24215199287481       -0.01024536947176
N           -1.76016659643924       -2.49872075647898       -0.00486626235687
H           -1.20267849047508       -3.26759038821432       -0.33429007021169
H           -2.74396567997104       -2.54774397254198       -0.22264087133235
C           -2.07994605677945       -0.15386489441703        0.05998465591492
C           -1.60862918013956        1.20153143649461       -0.11634617346765
C           -2.75885788279128        1.98187873626940       -0.17361751395521
N           -3.87404173990204        1.24255478181891       -0.01448107725409
C           -3.49486938594136       -0.02464556578940        0.13442490060484
N           -4.41518526565519       -1.04659994078248        0.29197401027029
H           -4.20842283987648       -1.68129596167349        1.05217743467922
H           -5.35412986183578       -0.67439911768028        0.35830125875940
H           -2.85013250208755        3.04474701520035       -0.30686596022521
C           -0.23493433042848        1.47523294217054       -0.19016070244100
N            0.16596251271727        2.76904642874355       -0.31395837414699
H            1.09355865002942        2.99778794171770       -0.62136193722051
H           -0.55010079074140        3.45897552942492       -0.45300300521610
C            0.68666323929270        0.40515611095518       -0.09448259637586
C            2.00701925989849        0.72469811166333        0.21996474079870
H            2.17771325091545        1.76061975819466        0.49836139434880
H            0.64668385244294       -3.05780842824163        0.13376320656957
H            4.20283470705199       -1.59922201599952       -0.87543621098572
