23
 energy: -43.258607688015 gnorm: 0.000730568919 xtb: 6.6.1 (8d0f1dd)
N            3.17368697961214        2.30961368492566        0.55259553555187
C            2.46258942008219        1.21480271311109        0.18927501186318
N            1.22575382436513        1.47290319494286       -0.22719712000363
C            0.15902161768918        0.72779161038459       -0.21926646576059
C           -1.04901698788340        1.26583933563817       -0.72030849622879
C           -2.20882524827485        0.58191052877101       -0.48429419948960
N           -3.50646409331036        0.91824260993463       -0.60098903277358
C           -4.13481129979230        0.04296519732298        0.16965365825928
N           -3.38255585667329       -0.84048790344409        0.85640622932114
C           -2.15094603175446       -0.60369558208972        0.43760431370107
N           -1.01967226192656       -1.18313129109676        0.74855588635354
C            0.10916720464667       -0.68508704287418        0.29666647806140
N            1.12824349784189       -1.49594125974410        0.12959349730783
C            2.41052039613445       -1.24163632533196       -0.09256223107145
N            3.11338109127190       -2.33025948769198       -0.48446459779105
H            2.63289923598001       -3.21331964997340       -0.48336207038268
H            4.11562214155219       -2.31382803529887       -0.52733888174769
C            3.09127732138744       -0.03067543080892        0.11225817265420
H            4.17308633503965       -0.05169131763041        0.12190032796980
H           -5.20562254105267        0.04736664942748        0.26834660538153
H           -1.04474766816750        2.27010254509265       -1.11657394676213
H            2.74977335063582        3.21097198919566        0.41879094687222
H            4.17029542459703        2.25461095773752        0.65831810731404
