26
 energy: -53.602421114760 gnorm: 0.000545645214 xtb: 6.6.1 (8d0f1dd)
N           -3.53585401270538       -3.02272810260186        0.14814171679843
C           -3.13738063486817       -1.94782102247357        0.12735376084170
C           -2.72198102086962       -0.59614001661626        0.08090430227280
C           -3.69871659777460        0.35399307848433        0.58212783117948
N           -3.80642170816866        1.59108334118174        0.30037698854422
C           -2.95321990579929        2.28516794085597       -0.48701275371010
N           -1.68561235546557        2.15042631958708       -0.55203689686295
C           -0.90841624453864        1.10374040730886       -0.20413653290125
C            0.44849080852598        1.34830903896597       -0.02212332983739
C            0.90427517626407        2.68564829030228        0.04054033213255
N            1.26726131537159        3.76994761075403        0.10421865737335
C            1.35624070169948        0.27089655386208        0.05600476899221
C            0.86489958652528       -1.08543197875134       -0.15248423813782
C            2.02353407516119       -1.96141173127190       -0.12224487311895
C            1.96595303191626       -3.35076737939243       -0.27723596131675
N            1.89411997684624       -4.48926640824156       -0.40292123770524
C            3.12968204803691       -1.18316649949874        0.09033414610653
C            2.73447777366043        0.19982992499537        0.19989537346374
C            3.63181558512601        1.25171189836394        0.41147095095313
N            4.39773691053423        2.08759081010881        0.59197053094921
H            4.14535339022116       -1.52629526060577        0.16773526884273
C           -0.45431820455650       -1.35264276477358       -0.31393031858929
C           -1.40159355482916       -0.28512991238689       -0.20224705689864
H           -0.81077228121212       -2.36336575606848       -0.45669259469609
H           -3.38817375068463        3.14086769170667       -0.98918259026266
H           -4.43556670772912       -0.04691542730079        1.27308450648252
