22
 energy: -40.333021261678 gnorm: 0.000420810109 xtb: 6.6.1 (8d0f1dd)
N           -4.25387496526010       -2.11759418588063       -0.00039656549650
C           -3.54008089370636       -1.21760278289512        0.00171165099663
C           -2.68157859393675       -0.11779471615361        0.00095774165675
C           -1.28455115921914       -0.10306842357753        0.00072299954033
C           -0.92681372327252        1.34530747906925        0.00075872845360
N           -2.03342872343529        2.10099520799737        0.00076491507542
C           -3.05300330596870        1.25259222858226        0.00085107782428
H           -4.06281399766818        1.62537407372600        0.00102113986106
N            0.31761926944243        1.73607456669861        0.00072313604651
C            1.27038290121701        0.78176717025564        0.00065532361041
C            2.56461705316827        1.31193490493499        0.00073222912405
C            3.80392187147630        0.69219620204477        0.00062975852466
C            4.09445101644485       -0.66088342834204        0.00041494327530
C            3.20459519970444       -1.73512720121865        0.00032661027082
C            1.82965799092328       -1.71299168721038        0.00042406852294
C            0.91835256535209       -0.63771450985574        0.00055994363493
N           -0.35723953240509       -1.03709106830173        0.00063995548730
H            1.32265206310863       -2.67115644393589        0.00037517394636
H            3.65810474755964       -2.71822630113159        0.00017557931845
H            5.14543353823250       -0.92164010549936        0.00032120520867
H            4.65653648748744        1.35947573269670        0.00070942956293
H            2.56162546055518        2.39571882479659        0.00091763635505
