22
 energy: -40.320336113083 gnorm: 0.000964472988 xtb: 6.6.1 (8d0f1dd)
N           -2.18179201071338       -3.31639279779696       -0.00098726738746
C           -1.98210541157962       -2.18758890770298        0.00022958876313
C           -1.80539268773528       -0.77687485466379       -0.00012414151195
C           -3.02557692094559       -0.09180983961988        0.00013676599224
N           -3.30775710573021        1.19533475081392        0.00039416379362
C           -2.45272569048730        2.18688845295595        0.00044923023501
C           -1.05455657604133        2.19290668538719        0.00021940024341
C           -0.13318147067853        1.14836682592820       -0.00006466392082
N            1.13066415913919        1.58041592464479       -0.00019448126749
C            2.10529236899769        0.70896795632962       -0.00041246083376
C            1.87709698928192       -0.77230983675646       -0.00051097929792
C            3.14992979458125       -1.31498809809419       -0.00071949254559
C            4.02206313973118       -0.21263936060251       -0.00074182362355
N            3.41131489404797        0.97710757026341       -0.00054843033147
H            5.09789781152711       -0.25179384098437       -0.00089552975536
H            3.42954241210094       -2.34975643126362       -0.00084869049004
C            0.57028697899734       -1.22313679528429       -0.00039030387490
C           -0.47281617359892       -0.29737837252904       -0.00019919414484
H            0.35186730688183       -2.28313244383192       -0.00046909697374
H           -0.58020771982387        3.16654393093354        0.00026472825787
H           -2.93673554260882        3.15874087463842        0.00070930721577
H           -3.91553174264354       -0.71583181346507        0.00015053245787
