31
 energy: -54.641407772171 gnorm: 0.000854961971 xtb: 6.6.1 (8d0f1dd)
N            5.96212598422354        0.35764652741090        0.11960954503750
C            4.81776152402575        0.25204476541370        0.05113819765391
C            3.41704668160255        0.12121921844778       -0.00420640014611
C            2.91909892423104       -1.20568792295341       -0.03013813616266
N            3.84223734810319       -2.20769396405862       -0.07305356212116
H            4.82102888965468       -2.00518128591356        0.03292050864989
H            3.53812146119600       -3.15977521822880        0.01848289969069
C            1.58433112414697       -1.59851720152658       -0.03664401922093
C            0.37364238232952       -0.90324633669424       -0.02447407863400
N           -0.68240562407555       -1.71278655141297       -0.01458380816171
C           -1.90144562475587       -1.19400973369525       -0.00638742844816
C           -2.14441105821774        0.26537591508521       -0.01276268706795
C           -3.53685737139179        0.45350437987035       -0.00101686563336
C           -4.23193909495229        1.65445508339961       -0.00086069286813
N           -4.83350440834962        2.63809593732641        0.00078400450205
C           -4.13319394667707       -0.84067944298116        0.01258834626754
N           -5.45759516369700       -1.06311198758919        0.02884620108513
H           -6.09774749302443       -0.28790333485290        0.02693499778385
H           -5.81778817182107       -2.00023571551998        0.03428042118554
C           -3.12721892724512       -1.83242319559010        0.00919343136258
H           -3.29768079885605       -2.89106598991526        0.01731439921251
C           -1.06144956263497        1.10407384224523       -0.02434609060520
C            0.24278770929201        0.56584948648777       -0.02704961890439
C            1.29316715537951        1.47077988378767       -0.03507341833467
C            2.68573430987437        1.32744973087945       -0.02287851352446
N            3.40274227641836        2.48660784945649       -0.05549789017934
H            4.40266008798517        2.46709051876134        0.04576070929302
H            2.93198174384937        3.36708502628985        0.04746969010880
H            0.97400198222701        2.50957982184626       -0.04730573706927
H           -1.19293316553258        2.17853320628697       -0.02872749422497
H            1.42721442559204       -2.67145633206283       -0.04760253392665
