29
 energy: -55.997260812413 gnorm: 0.000612770495 xtb: 6.6.1 (8d0f1dd)
N           -3.60990674080937       -3.29048961639234       -0.67716052277315
C           -3.20729499871867       -2.23395993463896       -0.46264557394803
C           -2.76803374940623       -0.94081768130411       -0.19434763746052
C           -3.60373126085425        0.14051623724087        0.17026292990207
N           -4.93226560448604        0.08237857530645        0.30443129912215
H           -5.45936140859741        0.90233307489198        0.54915367253558
H           -5.41721689911453       -0.78322612282284        0.13526329204608
C           -2.80310497973103        1.30981171368797        0.37159909188288
C           -1.49610994936723        0.97165179413419        0.13697729963713
C           -1.44191655593308       -0.45683364321702       -0.22438904580987
C           -0.24169534839777       -1.07453657619821       -0.46045955415052
C            0.96134917436523       -0.34787190632468       -0.33824805598380
C            2.15358492380276       -1.03792111681970       -0.13716813262159
C            2.12212940663366       -2.44806466953026       -0.08082068019924
N            2.18237541496475       -3.59451083951831       -0.03027702192693
C            3.44944756948420       -0.45925063217266        0.17540024044371
N            3.89526270682364        0.70292454761244       -0.23005830538189
C            3.16218781548136        1.67551622771797       -0.75383646287625
N            1.90643336117476        1.93611552975789       -0.59524387630850
C            0.90383411603806        1.13516481182753       -0.24101650228229
C           -0.30966389240012        1.73427408932221        0.09381727279768
C           -0.37572933512554        3.12578822471201        0.30732449153512
N           -0.47125053209205        4.25092270372988        0.51100675038741
H            3.73411181040715        2.43655508789801       -1.27437599444643
N            4.31418720686568       -1.21425803031193        0.87630933629812
H            4.11269794780115       -2.17422734351887        1.09890733726205
H            5.24025279494914       -0.85041000906420        1.02363343103055
H           -0.20303143749957       -2.13622084786612       -0.66089309944933
H           -3.18038128075844        2.27601073806077        0.64694788383778
