26
 energy: -52.807982223945 gnorm: 0.000829954461 xtb: 6.6.1 (8d0f1dd)
N           -5.81820138122988       -1.05055439978565       -0.40835044332253
C           -4.69463364013714       -0.89347895941419       -0.24399591001919
C           -3.30882918512344       -0.71075117458556       -0.02829771406650
C           -2.60568967195622       -1.77271144162567        0.61496697187271
N           -1.34834714680565       -2.00473460481784        0.54952742552567
C           -0.29813568527384       -1.29615966136724        0.16002798590398
N            0.77234266276491       -1.98525927105579       -0.15120754551275
C            1.94185243975724       -1.34807332823986       -0.19961091880187
C            2.09844377895518        0.07162844421614        0.23564789546418
N            3.37810708572042        0.41752730111173        0.28216770102379
C            4.06050547516387       -0.67488530579375       -0.13401469090321
N            5.38608078064924       -0.64178463686343       -0.21195519311015
H            5.86015719819193        0.20776986113970        0.04725024525198
H            5.91221240724890       -1.44527037936944       -0.50802013209313
C            3.21561665138321       -1.79051145026314       -0.44110352898699
H            3.53626706716583       -2.75741063805083       -0.76796360111248
C            0.95347017369281        0.82935762078486        0.45416731039960
C            1.05985554780280        2.17005571280281        0.88569441166447
N            1.17453179216818        3.22316880950204        1.32428505095767
C           -0.29199959884570        0.19910709269152        0.21889512860056
C           -1.42067404058477        0.92991161203696       -0.16944327208460
C           -1.23757659699529        2.29168705318184       -0.53993086869051
N           -1.17062572852919        3.37059459514972       -0.91931706296959
C           -2.73663339392287        0.48517089483923       -0.41028793642385
H           -3.39330868796802        1.21529250045304       -0.87103956197885
H           -3.19064663108797       -2.51865157168218        1.14413466961130
