23
 energy: -44.843055356158 gnorm: 0.000999079913 xtb: 6.6.1 (8d0f1dd)
N            4.42868591899897        1.40727507475340       -0.00007568492637
C            3.60200275118290        0.61072715180618        0.00069926026720
C            2.62510351304519       -0.38825972462955        0.00079225337256
C            2.86642279735973       -1.79392178373507        0.00100101558488
N            1.76929794871153       -2.53072910502756        0.00107195930692
C            0.73930554929680       -1.66961514761898        0.00096468067032
N           -0.52441844791373       -1.98645395306558        0.00100273996469
C           -1.44688012735832       -1.01213369746414        0.00086302803275
C           -2.75012840553758       -1.50032405440130        0.00145614332299
C           -3.97020917064706       -0.82144169796542        0.00155147084880
C           -4.17234841229901        0.53974835202976        0.00079092082524
C           -3.18615960242489        1.54876579941743       -0.00009038023355
N           -1.89105399493798        1.47556049269236       -0.00006455152895
C           -1.07617001830047        0.42353902941951        0.00037338761646
C            0.29535175734675        0.75765332803660        0.00047558462204
C            0.68521806150777        2.11895444461474        0.00097390768857
N            1.03303687442424        3.21020137090379       -0.00153281018374
C            1.23841961012107       -0.26438429324470        0.00075724120503
H           -3.54660615371315        2.57375554977315       -0.00076428048961
H           -5.19649878670374        0.88939079273853        0.00090204446377
H           -4.85371373393514       -1.44688787701561        0.00220076787388
H           -2.79128873287788       -2.58288727019178        0.00201680247008
H            3.83576638525401       -2.26088490602572        0.00111290932605
