30
 energy: -49.284463742901 gnorm: 0.000585261226 xtb: 6.6.1 (8d0f1dd)
N           -3.05910162563597       -2.46215528520133       -0.01796116166319
C           -2.59897755265766       -1.14114553384757        0.00113086634809
C           -3.40800995322899        0.00206086790444        0.00517439055719
C           -2.60658361014889        1.14038570401171        0.02476836054585
N           -3.05743633071525        2.46562752759821        0.03230739685862
H           -2.62698279991671        3.02831537320030        0.75580027475830
H           -4.06621466245464        2.51513775617419        0.10078618609874
C           -1.25421357639952        0.72575514130807        0.02397459906520
C           -1.25441595462837       -0.72740834675452        0.01035513960019
C           -0.05914586016189       -1.43694729812679       -0.06066272566698
N           -0.09725778531635       -2.80777088737037       -0.17702065683768
H           -0.96957027859187       -3.16749262790286       -0.53267178130427
H            0.72236982916667       -3.25553746240989       -0.55269240766031
C            1.17777519634217       -0.74552773503587       -0.00976716943270
C            2.32519281989279       -1.47129400956103        0.29239837777274
N            3.60668215470442       -1.18933700750573        0.11966816130915
C            4.07101902742588       -0.01391713471513       -0.25525084961300
N            3.60891993265580        1.18126554325688       -0.02822253866841
C            2.32818141174192        1.48417537456423        0.21060998329766
C            1.17897357005947        0.75395372689449       -0.01489544068697
C           -0.07090714424018        1.44306112868005       -0.04984934074518
N           -0.11813337620686        2.81178098361879       -0.16603720675483
H            0.69419942790359        3.26836352926265       -0.54647225391913
H           -0.99880277684943        3.16704972015030       -0.50632436860621
H            2.21862011068346        2.51835152554679        0.52639036352611
H            5.05720013933268       -0.04508289340951       -0.71551116472594
H            2.18359263069584       -2.48564852753680        0.65974575935626
H           -4.48479349793061       -0.00156052465671       -0.00435769449429
H           -4.06756993489771       -2.50768730290778        0.05849324686337
H           -2.62356227672476       -3.04864114733877        0.68344099544203
