23
 energy: -39.257972561742 gnorm: 0.000542314892 xtb: 6.6.1 (8d0f1dd)
N            4.70822429676820        0.20378526003969        0.02068814366787
C            3.38198092761496        0.02726412055789        0.01865254368615
N            2.55819658264380        1.09404033075557        0.01862622624538
C            1.32551642935011        0.59390841901864        0.01238499745016
C            1.36187912999438       -0.89941108446060        0.00791847255166
C            2.69737169724536       -1.22379113197481        0.01204553938038
H            3.15752688568571       -2.19268100490540        0.01077736267687
C            0.14443203225833       -1.56542989473658        0.00235272598172
C           -1.04064837342473       -0.84107295469530        0.00107174442433
C           -2.24457480736604       -1.57354535943609       -0.00259350576224
C           -3.55374560578125       -1.15258056274594       -0.00445617317096
C           -4.02760488557221        0.15969933501013       -0.00438618501926
C           -3.26489764358791        1.31776841277456       -0.00183086454940
N           -1.96488647610565        1.50510280805998        0.00287353922221
C           -0.95933652621219        0.65415654987999        0.00493933860524
N            0.21458452036996        1.28499605826571        0.01083604537535
H           -3.81287889606960        2.25739117078515       -0.00322406546544
H           -5.10206397770073        0.28939946952215       -0.00672364562601
H           -4.30600789897853       -1.93201422062961       -0.00672264581043
H           -2.10224341733838       -2.65029019661097       -0.00375112403531
H            0.11128992642851       -2.64902404934047       -0.00055527005333
H            5.33837911562356       -0.57700860884183        0.03895792563275
H            5.06298905085433        1.14371736870818        0.03661519749230
