25
 energy: -48.306474951675 gnorm: 0.000431821132 xtb: 6.6.1 (8d0f1dd)
N           -1.56980841252411       -4.08580518147987        0.00030947058150
C           -1.61319629046815       -2.93978187739350       -0.00046548739190
C           -1.77377056244418       -1.52804983956147        0.00026329129065
C           -3.12859119178945       -1.16955243896477        0.00122798982788
N           -3.72094912046038        0.00160485934434        0.00197353357878
C           -3.12760860365336        1.17226555137783        0.00161466650973
C           -1.77249054370883        1.52963130918703        0.00019979429150
C           -1.61075237020344        2.94123545623731        0.00060152561428
N           -1.56640472162624        4.08724889905511       -0.00072836318875
C           -0.59249110612661        0.74113554163804       -0.00079174217555
C            0.61754156209964        1.42781513240655       -0.00189910690055
C            1.81745957576592        0.73797915706714       -0.00264720034719
C            1.81683915210496       -0.73941008106971       -0.00225154743295
N            3.07559588286629       -1.15615639803825       -0.00304782039987
C            3.79090852099109       -0.00154322550292       -0.00389358513186
N            5.11734800571210       -0.00209886276931       -0.00486983887659
H            5.60902079571734        0.87435423186084       -0.00549171714002
H            5.60828673196852       -0.87896342539331       -0.00498986587303
N            3.07656524819547        1.15366940633644       -0.00368899539308
C            0.61634065040713       -1.42823786200717       -0.00123990811366
C           -0.59311273611038       -0.74054041608531       -0.00052932663978
H            0.62772524297458       -2.50755192306055       -0.00101089453797
H            0.62983814642042        2.50711814203492       -0.00215053041090
H           -3.83144292870952        2.00060399933307        0.00246080332900
H           -3.83311994019881       -1.99730071145245        0.00156007073038
