28
 energy: -45.850614653987 gnorm: 0.000372717147 xtb: 6.6.1 (8d0f1dd)
N           -0.99869583696095       -2.80484567913495       -0.59155516196318
C           -0.79458790738497       -1.49629463371419       -0.29596217198735
C           -1.87368499700516       -0.65699237931540       -0.08778047238018
C           -1.69162676503371        0.73481829977358        0.25388895583407
C           -2.96878216660150        1.23175256793877        0.43863247837145
N           -3.90873951249563        0.27392537111614        0.23898107030366
C           -3.28075165066641       -0.84091775477926       -0.07679142182969
H           -3.83455260903440       -1.74241970377341       -0.27297083753498
H           -3.28205438911134        2.22774043182075        0.69874366316025
C           -0.40081101700340        1.31424768313898        0.21690569493666
N           -0.30325959921909        2.70695453047845        0.34957525025058
H            0.49955434568018        3.02199516826023        0.87738973497958
H           -1.16107926055670        3.10602618576973        0.70359068903422
C            0.69208049769673        0.50194112082027       -0.01316396814196
C            1.97530691329094        1.07191406305928       -0.38806158382050
N            1.93104928914904        2.22736460238005       -1.08306239675847
H            1.04574213865023        2.67179224169229       -1.26120474276978
H            2.78211424461138        2.67431446287861       -1.37535901060086
C            3.22723497528114        0.57215028017640       -0.06173758669169
C            3.48702183537756       -0.61154344812955        0.63504379000726
N            2.76259547827149       -1.68668291550283        0.71925610322665
C            1.54004563308459       -1.85529851415941        0.20546909611238
C            0.52808016177740       -0.96269765224429       -0.06458287774305
H            1.30941952131574       -2.91400965017644        0.13325276507619
H            4.46106734934302       -0.70258010707518        1.10918461696023
H            4.07609149263689        1.20501183419950       -0.29096039623836
H           -0.26198567778682       -3.37697037900938       -0.96126948109261
H           -1.94616378970632       -3.09970347598847       -0.74712405070057
