25
 energy: -48.294841732143 gnorm: 0.000873614498 xtb: 6.6.1 (8d0f1dd)
N            4.83755776220974        1.35623530938888       -0.86519059427739
C            4.07013366856630        0.56964090800432       -0.52882169381380
C            3.12903671845738       -0.37607293169355       -0.12237020026954
C            1.72657076293573       -0.24861700562131       -0.12616087072342
C            1.24457990146975       -1.56559458841374        0.39335437431972
N            2.27145675544689       -2.35496879379101        0.68995717710044
C            3.37600896289210       -1.67409269066107        0.36334948070107
H            4.34287836570167       -2.12949315875605        0.48897298862584
N           -0.02963108068662       -1.85607485224342        0.49466353285386
C           -0.92801206530160       -0.93880107753258        0.17453046685937
N           -2.13304362375809       -1.41706808035827       -0.03868116497739
C           -3.31789869310412       -0.87511083951229       -0.14121360483344
N           -4.27912106206264       -1.67099147606400       -0.64800330691855
H           -4.02921698437871       -2.61515541550490       -0.88971306640727
H           -5.24574875484481       -1.39857230707261       -0.64061654798236
C           -3.68507317229128        0.42369851057610        0.33071595414492
C           -2.83386108474581        1.48231512573018        0.44308516341362
C           -1.45819891626478        1.53703282717543        0.11372070763875
C           -0.96499086358880        2.86497017919639        0.01279731720929
N           -0.61858789223940        3.95491713021089       -0.06482581419580
C           -0.54273161156187        0.49086066063179       -0.03251471616553
C            0.81832989215244        0.76893336728200       -0.26542414399333
H            1.13578645360265        1.78355005874024       -0.46950950338246
H           -3.26573321418849        2.42998327014438        0.74420743591716
H           -4.72865119101794        0.58030657474472        0.56940380145634
