24
 energy: -49.354164020947 gnorm: 0.000602806296 xtb: 6.6.1 (8d0f1dd)
N           -3.59821262877385       -2.66237530237861        0.95524644479281
C           -3.15954153357683       -1.66449804232535        0.60256517699495
C           -2.65958508694179       -0.41397190373187        0.15984637793346
C           -3.47544827821472        0.69876800268701        0.37928754756075
N           -3.36325069866181        1.90639432546257       -0.13558008426115
C           -2.29848474030029        2.40106896568096       -0.70632208038539
N           -1.05863987883115        2.04388619824975       -0.45015226337990
C           -0.56225271952931        0.88184252133662       -0.18523206126888
C            0.83080342697503        0.79122412172754        0.16444700049419
C            1.54206349414403        1.99314194926937        0.39715868252383
N            2.09815966536497        2.97048009729378        0.61185431792092
C            1.43806638950917       -0.43659645917773        0.09168954379320
C            0.63572543866533       -1.60971981550817       -0.36097647626106
N           -0.68744063288563       -1.55064426285650       -0.44323117385234
C           -1.30151065289187       -0.41584484274630       -0.28320346370229
C            1.51088463209743       -2.64469084206267       -0.59847443282035
C            2.81250693941584       -2.20515552663455       -0.26058605892683
C            2.78985775317187       -0.87837370489905        0.15909189552940
C            3.88398007165746       -0.11726876546526        0.58553715789645
N            4.79116546666476        0.49468173314862        0.93158455723878
H            3.70063635691355       -2.80821617618116       -0.32424902687524
H            1.25429366970448       -3.61852061489999       -0.96607928294284
H           -2.42217314789092        3.30498021962531       -1.28958022759672
H           -4.37709093138633        0.54734824359156        0.96349664809094
