27
 energy: -46.933700496587 gnorm: 0.000738401633 xtb: 6.6.1 (8d0f1dd)
N            5.43343760698401        1.39928368753124        0.42166793681496
C            4.42604879962544        0.86831396282685        0.26549484586775
C            3.20118560288160        0.19942087031480        0.09393474298049
C            3.25432377193076       -1.17830491997327       -0.30080120811159
N            2.32426559683871       -2.04691846909271       -0.20863159016950
C            1.03827959204427       -1.90780551669010        0.14714673708691
C            0.19678682724239       -0.83298305118553       -0.01337846323285
C           -1.22840671601390       -1.07542514260039       -0.02786451652790
N           -1.72502971205437       -2.34366914129402       -0.09296856356704
H           -1.12774704801696       -3.08343039074553       -0.42158576936901
H           -2.69417500811531       -2.41583100166270       -0.36044687277125
C           -2.08777502389074        0.00032988341727        0.01444629412706
C           -1.59901437810295        1.36706426884716       -0.07307361016269
C           -2.74335555276515        2.15725073934038       -0.14699120909850
N           -3.86655227630422        1.41823435004296       -0.07603401887877
C           -3.50600040353815        0.14065469220016        0.03269627653286
N           -4.44264265565948       -0.86900238864943        0.11467531326685
H           -4.25921203904525       -1.57086160479577        0.81881240257785
H           -5.37926325688968       -0.49228709643392        0.18183449004631
H           -2.80744333774536        3.22488324699209       -0.24134533146287
C           -0.23460124706081        1.61163135412090       -0.08057883764417
C            0.68268465094617        0.56854274764461       -0.04569909770132
C            2.03289292186401        0.93996989168339        0.11374504820453
H            2.18464804756326        2.00896261897829        0.23130298602176
H            0.12343844001676        2.63079180751006       -0.10708593001927
H            0.62452579227133       -2.85364142764110        0.48240687896869
H            4.18780067669344       -1.53507030778601       -0.72579027037952
