26
 energy: -52.817001215897 gnorm: 0.000703177006 xtb: 6.6.1 (8d0f1dd)
N           -2.26748471963519       -3.13769054441306        1.05936634000222
C           -2.26944254854607       -2.07724649218859        0.62339429009003
C           -2.39206633075083       -0.72594015250758        0.20840325071644
C           -3.71190186623623       -0.28563814965803        0.16380337854390
N           -4.20537577718224        0.83025722817775       -0.33596450229432
C           -3.57673506514740        1.95143387938516       -0.54127487271290
C           -2.28345637689052        2.31695983315121       -0.14575488145207
C           -1.18795347217252        1.49588177350232        0.10285971296468
N           -0.05815100639679        2.18422817385574        0.33558704275841
C            1.08619725825002        1.56385045202904        0.28403947862261
N            2.28931033865115        2.12154453343628        0.45264006188796
C            3.18038342436692        1.15978946907167        0.21721327493100
N            4.48864905497576        1.36667194593557        0.28658599796855
H            5.13607544975856        0.61865889048080        0.10002396566988
H            4.82500030399246        2.28313405601559        0.53120594952557
C            2.56292509756546       -0.11957627499782       -0.12200113158896
C            3.29065598286384       -1.27058763023410       -0.41299341433123
N            3.96812163741457       -2.17097315073468       -0.64022800445630
C            1.20802985785193        0.12294549924150       -0.06422580073947
C            0.02611449790975       -0.62639916831651       -0.17435671400590
C            0.13571446140279       -1.99720493398373       -0.50512887830274
N            0.30750913351859       -3.07086545383058       -0.86890738289760
C           -1.19925673641750        0.02691189268591       -0.00480090752604
H           -2.04516527418336        3.37273159660981       -0.13262154287000
H           -4.18753922617723        2.71666754703902       -1.00947930922675
H           -4.47351003128580       -0.99388326975228        0.47599723932080
