25
 energy: -43.497479869306 gnorm: 0.000979180288 xtb: 6.6.1 (8d0f1dd)
N           -4.82218429745211       -1.30792965470932       -0.08880641646053
C           -3.83754342438610       -0.71705229500241       -0.02978779400021
C           -2.62249137213131       -0.00842077402704        0.03111996181695
C           -2.68666961288125        1.31537225884110        0.51152564691085
N           -1.84759329339216        2.27686839770968        0.29159559149831
C           -0.62113133223473        2.21539065220194       -0.19072659994659
C            0.28485051930348        1.15819501557752       -0.16833005086478
C            1.65589711199433        1.50375579609824       -0.24899185356727
C            2.62103815785458        0.55673838872352       -0.07043813393766
C            2.24414380982030       -0.83607521438076        0.16955154492495
C            3.44333992714028       -1.50528702300998        0.34904015498359
N            4.50088840507585       -0.66436322493614        0.22551398722532
C            4.04255616350437        0.54600363629359       -0.01742151894228
H            4.70799168130415        1.37824710090627       -0.15258965914122
H            3.60595364271347       -2.54752566905386        0.55269461485285
C            0.90152043372850       -1.20146912915422        0.11431136346805
C           -0.09078279153996       -0.25289092469426       -0.06854299067774
C           -1.44128649174510       -0.70899306400247       -0.30314294643068
N           -1.59806115983239       -1.94738541433412       -0.79459449480428
H           -0.80217469969677       -2.51428792404372       -1.03038047610653
H           -2.52331691008693       -2.32990867668991       -0.91157589327968
H            0.65118169706229       -2.24392766987745        0.26064492585235
H            1.91677164273030        2.54410792510941       -0.38581793528764
H           -0.24638635365981        3.18624331377325       -0.50238803885315
H           -3.59052533869408        1.61141882678195        1.03709651396805
