26
 energy: -48.010919882340 gnorm: 0.000666381472 xtb: 6.6.1 (8d0f1dd)
N            2.46330056954422        2.94953490789115       -0.86531113005772
C            2.25626598961478        1.88267916371790       -0.49732507501914
C            2.13698002194005        0.50795069249470       -0.16855567263233
C            3.37908490587285       -0.14164001762290       -0.17914572773672
N            3.71107245513921       -1.35739392665660        0.18688589103609
C            2.89829209202940       -2.36969052874536        0.38037439375532
C            1.53651750948236       -2.47999021235474        0.11899620291504
C            0.57169238564243       -1.48506532875551       -0.06899496991546
N           -0.65482185113476       -1.96967292067729       -0.24773020092813
C           -1.69042048219400       -1.15588536988136       -0.19708117117914
C           -1.55493239105817        0.29719264795909        0.11560490185143
C           -2.81389153139156        0.82803320338960        0.19414276554159
C           -3.73731647440433       -0.22632397286971       -0.08217786264224
N           -5.06717244035999       -0.07973056519798       -0.10417131994799
H           -5.48408123232862        0.81624221033627        0.07960267235904
H           -5.66483629172597       -0.86127608675294       -0.30922903603556
C           -3.03903465561680       -1.43026545836555       -0.32010766628483
H           -3.47888846009679       -2.38100191848551       -0.54608065478464
H           -3.07736214969431        1.84560671218564        0.41186128561504
C           -0.25553003124564        0.82187746891389        0.21151634785383
C           -0.14513678098145        2.19121532231181        0.53843631840214
N           -0.18690086548703        3.28078546007155        0.89731775937961
C            0.84271127651263       -0.03030967874562        0.03158292633078
H            1.11691557224472       -3.47813762359795        0.13275225547207
H            3.40842254803951       -3.26554744841118        0.72041179195753
H            4.23290558924090        0.47366781374970       -0.44894090731337
