28
 energy: -46.664479464697 gnorm: 0.000522406765 xtb: 6.6.1 (8d0f1dd)
N           -4.89758995702209       -1.63631411350068        0.22088011540479
C           -3.97372302202736       -0.95918665878160        0.10189420673819
C           -2.83612080565370       -0.14655463623339       -0.03271184098699
C           -3.04981547943343        1.14564341125912       -0.58446837381039
N           -2.31828666776249        2.19953369171545       -0.46667971952262
C           -1.08600952209377        2.28914429929411        0.03462349698154
C           -0.08808655607943        1.33429962720262        0.12377537475941
C            1.24232767683574        1.82164841843456        0.26138156664796
C            2.31133682495522        0.98959131094748        0.15070624207045
C            2.10157991847350       -0.43726423941428       -0.08459588333207
C            3.35796040017788       -1.01986492354129       -0.22376958962412
N            3.64967945073076       -2.35540963258029       -0.40216409475941
H            4.57570337525860       -2.55158082238293       -0.74890260370980
H            2.92629882216171       -2.91063291771366       -0.83150873851462
C            4.33510801083552        0.00627898761073       -0.05367169042487
C            3.71924885625598        1.20865713402267        0.16931066323745
H            4.19802231635837        2.15685323777699        0.32538043763770
H            5.39661596862989       -0.16413508715067       -0.10251786538018
C            0.80360566420203       -0.94301815458513       -0.06619859502638
C           -0.29537424400927       -0.11277050441182        0.06542155207998
C           -1.59094915977548       -0.70695677396715        0.30174375413556
N           -1.61014862607856       -1.94871653589264        0.82332505221303
H           -0.76105128070046       -2.39888043434389        1.11394292425894
H           -2.49186866188507       -2.41007604990586        0.97943113334308
H            0.66669966859853       -2.01055630903304       -0.18597905366699
H            1.38216099190626        2.88644833477651        0.38796979118982
H           -0.80967658912047        3.31656552358289        0.25158193642455
H           -3.99512597744205        1.30276014541194       -1.09668944506197
