22
 energy: -39.537071828322 gnorm: 0.000389949725 xtb: 6.6.1 (8d0f1dd)
N            4.73043876578920        0.11597825108703        0.04355656206237
C            3.39823857510750        0.01853980556704        0.03536163953675
N            2.62890256987994        1.05153707047232        0.40202727378231
C            1.36304562729654        0.62253942788853        0.27500671752799
C            1.33067727728100       -0.78915472569236       -0.20432093233497
C            2.64543855991769       -1.14395220071852       -0.34849333851394
H            3.06034523084402       -2.07896536103144       -0.66822530002471
C            0.11072275158039       -1.47300233737689       -0.28982470521816
C           -1.04769267562454       -0.79278806373420       -0.00418828733033
N           -2.15054198058686       -1.43410439802273        0.38855181080628
C           -3.35638432766308       -0.97764008519791        0.52069858886912
N           -3.94219065202725        0.04976225097743       -0.09845427383308
C           -3.24527084905641        1.03878727501538       -0.58763101492307
N           -2.02728210815049        1.43505705167878       -0.25909488788717
C           -1.00678863597385        0.71412255704356        0.11260237559875
C            0.20527972930580        1.33693983793913        0.45451634448968
H            0.22206885999539        2.38429430541175        0.70876250962901
H           -3.78053251735305        1.72363462390097       -1.23971161986512
H           -4.02945506475125       -1.60451413153564        1.09792502441721
H            0.08153997671453       -2.53407458428801       -0.48444344606162
H            5.31001298518772       -0.66406797445068       -0.20836212413132
H            5.14825239068719        0.98122210556645        0.33871744870405
