30
 energy: -49.301191240507 gnorm: 0.000690407858 xtb: 6.6.1 (8d0f1dd)
N           -3.37764453055455       -2.50249797737599        0.34732349247243
C           -2.87803032763417       -1.23950811825406        0.10056801927492
C           -3.58243173818495       -0.07809455395647       -0.08255985516311
C           -2.67652396642195        1.01731370856205       -0.21270142937891
N           -3.08922410480846        2.33122828825051       -0.41147793950464
H           -4.08045214831465        2.45331586187585       -0.25601917655617
H           -2.54520975693475        3.01915540307073        0.09032178549179
C           -1.37841858892397        0.52912360378995       -0.13547825466659
C           -1.47358575504236       -0.90464083373057        0.09312229582199
C           -0.36517418856513       -1.67299366555682        0.23837426345828
C            0.93112966735622       -1.10379403427300        0.10009626969007
C            2.00366464266719       -1.97674712577703        0.05427434258856
N            3.23633925371811       -1.79387055856388       -0.45177078237829
C            3.78107641202095       -0.64063965091586       -0.65646209283028
N            3.49911846681334        0.53575397786343       -0.09481558982221
C            2.32686083652844        0.93404894776513        0.30938998489416
N            2.32331404165738        2.04081869225041        1.08218073919536
H            3.20501086637527        2.39029229635003        1.41617329760746
H            1.46210871985554        2.39249692804734        1.46118453567462
C            1.03214801734549        0.34958615677952       -0.02477103323148
C           -0.10175956637392        1.13234033238662       -0.17354253552783
N           -0.02280518545361        2.51997122009947       -0.34675229826537
H           -0.78514185979252        2.86989607101011       -0.90969239281331
H            0.87037715820083        2.83307367911218       -0.70271292449009
H            4.69322489882398       -0.64378532974402       -1.24697382146508
H            1.80982003780039       -3.01752883401548        0.29616929636500
H           -0.43542571706724       -2.74226173916895        0.38800003344928
H           -4.65383039275155        0.01574235396177       -0.11964735639138
H           -2.75675464165294       -3.26001066362750        0.10765147087269
H           -4.32936410938607       -2.64940630831588        0.04769181922799
