24
 energy: -44.558746551612 gnorm: 0.000407911807 xtb: 6.6.1 (8d0f1dd)
N            1.93020078648474        2.98866533527113       -0.95038070700021
C            1.78509720717161        1.92928278765208       -0.53714606056843
C            1.76150031037594        0.55480117280560       -0.17754286587097
C            3.04745380244828       -0.01030214979661       -0.19648166871735
N            3.44825267667482       -1.17715151703332        0.24515710797565
C            2.71651733814332       -2.23312147857243        0.47912875862089
C            1.37459804406252       -2.45828497203744        0.14438995450717
C            0.35607136559801       -1.54310567679128       -0.08640774908668
C           -0.92873115347988       -2.07144784338856       -0.31997604999083
C           -2.04244019514541       -1.27395850916563       -0.25267622729405
C           -1.90164098183940        0.15588375464082        0.12052142145191
N           -3.08404922974536        0.72758746574261        0.24551895303834
C           -3.99281669313320       -0.23579659752839       -0.04553172176528
C           -3.42764300490022       -1.46683568134855       -0.34420275026822
H           -3.94390316685056       -2.37075438891231       -0.59802847881158
H           -5.03932593902788        0.01119802165456       -0.02140094838891
C           -0.62564664606718        0.71606557645653        0.25565020527000
C           -0.54227857177866        2.06915768857661        0.65873125776824
N           -0.52953323163981        3.13266365345239        1.08613198148031
C            0.51622914743150       -0.07293587945768        0.04794653192078
H           -1.02852345024013       -3.13634743746907       -0.47929620319930
H            1.07352807038662       -3.49991956034457        0.13170577777014
H            3.27232210432130       -3.06670504821211        0.89486552707846
H            3.85681964997214        0.63985226610349       -0.51286885082479
