25
 energy: -53.082980307385 gnorm: 0.000962801028 xtb: 6.6.1 (8d0f1dd)
N           -5.83945336323888       -0.20293880767262        0.59797064751357
C           -4.72007521176002       -0.00249322793865        0.44318729564623
C           -3.34698126402249        0.21436366670993        0.21129059964142
C           -2.75403814427937        1.39923184066384        0.63285650460642
N           -1.58336630567329        1.88800348121965        0.29736265110858
C           -0.50971670306008        1.30981139802235       -0.17024001781323
N            0.49332292287097        2.03296973277842       -0.62361418937925
C            1.71110364939809        1.58293426480203       -0.49927748188573
N            2.83654945364019        2.14682417783414       -0.91974017730480
C            3.83636722483111        1.35997833920642       -0.52141186124972
C            3.40898037860557        0.17290830784665        0.11611535536658
C            4.22345457734819       -0.85187082463327        0.60817957495987
N            4.90233193850279       -1.68581673331731        1.00953292507605
C            2.01354359781927        0.27487579561547        0.18188898790054
C            0.96528144031709       -0.61851439689079        0.36270167709885
C            1.16799728693615       -1.98533608466557        0.65764960510666
N            1.30359682263616       -3.09437001833608        0.91150571320722
C           -0.33957518098921       -0.17485738004252        0.03553477785989
N           -1.31116857981789       -1.02086497796394       -0.13417954425017
C           -2.59294483744006       -0.86504880169694       -0.37325380641566
N           -3.22588438726091       -1.85815798934525       -1.01177551601872
H           -2.70237765306204       -2.67619911268718       -1.27671952552667
H           -4.23102542813216       -1.87586193615163       -1.06170592450360
H            4.85611842296053        1.64729345998043       -0.70680901706700
H           -3.34929494633638        2.07659606165127        1.23741690471929
