24
 energy: -48.579292577582 gnorm: 0.000721130880 xtb: 6.6.1 (8d0f1dd)
N           -1.79612414177222       -3.44123884161961        0.72534710704221
C           -1.96874616917516       -2.34169179022359        0.45182457259717
C           -2.24804233649037       -0.99327066554523        0.11750889347477
C           -3.56209697499916       -0.56162041290227        0.33583816002632
N           -4.15187399527472        0.52444414637577       -0.10388774256879
C           -3.53839230074806        1.56252707509812       -0.62911508791534
N           -2.32788168304542        1.97346121513526       -0.37023103591860
C           -1.24994864864785        1.29758791942700       -0.06019053002289
C           -0.10565392094776        2.00218649725162        0.36164971754968
C            1.10082151097095        1.34842193641018        0.34439965707098
N            2.34162066500490        1.82024336124262        0.54493309778946
C            3.17337343381143        0.84422499758282        0.18449551310031
N            4.49474977698422        0.96927157824774        0.25235943260879
H            4.88715838334398        1.82363534315491        0.60994197518685
H            5.09421553835344        0.21757436832841       -0.04432921995644
C            2.48303129669169       -0.34552193995278       -0.29860060446825
C            3.13344853616459       -1.48029584086406       -0.77180623188745
N            3.74531951026820       -2.37421891551576       -1.15684832872480
C            1.14118319426491       -0.05159320415581       -0.15144649244364
N            0.03972899079004       -0.76887084938881       -0.33010175442394
C           -1.12085163062014       -0.18280105626683       -0.20185661788482
H           -0.18144343510564        3.05889546819767        0.56254851270254
H           -4.16135568040534        2.24774734747723       -1.19360595980624
H           -4.22409544171512       -1.24634429959197        0.85733926157049
