32
 energy: -53.536078397813 gnorm: 0.000915475751 xtb: 6.6.1 (8d0f1dd)
N            5.13302027634849        1.26887355095058        0.39057837292643
C            4.15553543360303        0.70467792258187        0.15782918716539
C            2.95553264644528        0.03337481399837       -0.11598476286861
C            3.04010837163874       -1.10350111293610       -0.96806951951722
N            2.22610487977364       -2.09382665345528       -1.06982440784349
C            1.05029228704685       -2.22775591554502       -0.42845427043953
C            0.15451081776768       -1.28321037634894       -0.00219430642562
C           -1.17532335738859       -1.72226485155317        0.37078751448130
N           -1.42103586458038       -3.03159471428115        0.65780619807066
H           -2.34906604004906       -3.25875691139629        0.96910132303504
H           -0.67709152412602       -3.61869580651508        0.98980892443620
C           -2.20567646144924       -0.81085097911361        0.29362724106094
C           -1.95119833844042        0.56838928489032       -0.06603116992685
C           -3.18766096218570        1.19496785039796       -0.19467816949940
N           -3.42966767450622        2.53099196244137       -0.54895487784787
H           -2.99352984903017        2.80118818568458       -1.42358665654947
H           -4.42272529127212        2.72648524119751       -0.58675494515983
C           -4.19460582317729        0.24791427321698        0.12739675388809
C           -3.61346434827287       -0.95672069080697        0.42992887007069
H           -4.13821771149948       -1.85817354149343        0.69035150979604
H           -5.24979956303686        0.46099876561112        0.12337643087957
C           -0.62643881103676        1.06025079885499       -0.06322234783655
N           -0.43621228759700        2.44234576391785       -0.05830219442463
H           -1.29776945374348        2.95302560237531       -0.18337380292665
H            0.32512727201809        2.78870395882875       -0.62296647487130
C            0.42801063070526        0.16359691573652        0.02403190568711
C            1.76291354142721        0.61163499570345        0.34795077240673
N            1.87022287093212        1.70283145801804        1.12835450716051
H            2.78043047561479        2.05940583784795        1.36978276509695
H            1.03932924194776        2.19685115113875        1.41018729299223
H            0.75068106369405       -3.26978361216065       -0.40290722996790
H            3.94676048376412       -1.19649769769896       -1.56021323733318
