21
 energy: -45.390711408169 gnorm: 0.000681012298 xtb: 6.6.1 (8d0f1dd)
N           -1.00543730552292       -3.97927692558665       -0.65806525743986
C           -1.18323199825543       -2.88610885471634       -0.36392055109844
C           -1.43530457362511       -1.53896311394826       -0.00598845183699
C           -2.75859856813741       -1.15468286472804        0.08573031963069
N           -3.29813562809986        0.00156807139508        0.43981946111771
C           -2.72918848278239        1.17365069103279        0.38319819631737
C           -1.43559897081891        1.53329449652504       -0.02801521671091
C           -1.24748150165311        2.87630692431858       -0.42117502823305
N           -1.12617328077264        3.97240633398012       -0.73529066363235
C           -0.26384207246822        0.72617301260324        0.02450388691253
N            0.90195807152433        1.33541909013290       -0.08864246857087
C            2.03463280265584        0.72774098934965       -0.17843146663354
N            3.28804146724415        1.11003352364974       -0.10203315363227
C            3.99129527222144       -0.00451857381259        0.11234197090353
N            3.28194388080524       -1.11889037433806        0.30368623416728
C            2.03386377353062       -0.78367263840544        0.07555501104242
N            0.88854653945195       -1.34181093701943        0.26504234573839
C           -0.26140757590235       -0.72506981329863        0.17497640479237
H            5.06275042741733        0.00360177848556        0.17243036838714
H           -3.39375448945488        1.99746917599599        0.63016330150545
H           -3.49985160516181       -1.92460220071011       -0.11055785773376
