25
 energy: -48.304138050740 gnorm: 0.000683391773 xtb: 6.6.1 (8d0f1dd)
N           -2.33982109953789       -2.95737799506280        0.91073645415751
C           -2.16601143094252       -1.89675050541382        0.51023102578404
C           -2.10481871789683       -0.52248851845836        0.15886299472675
C           -3.37549744386845        0.07120954382239        0.16691230087546
N           -3.75385574691682        1.26226461944715       -0.22396616693678
C           -2.98175088065762        2.30521845344752       -0.42040157313027
C           -1.63508921457062        2.47749084966173       -0.11750454329733
C           -0.62751587362239        1.52797363575296        0.09040823141994
C            0.66281872705095        2.02713598023870        0.31018093290543
C            1.75267968759087        1.18949501731846        0.23988180793301
C            1.56866173337631       -0.23361838440622       -0.11434622589502
N            2.75581617005655       -0.79728184442239       -0.21755565670998
C            3.61785378293692        0.22104847652929        0.07541398735977
N            4.93005174700014        0.02561410232309        0.07840264502549
H            5.28681388505239       -0.88981883410701       -0.13274116311423
H            5.54488226614700        0.78911889266766        0.29815369482161
N            3.06105415052346        1.41858066744468        0.34922799533873
C            0.27721975451000       -0.76060742923585       -0.24451351400723
C            0.16938584497867       -2.11323905467893       -0.63717619406618
N            0.16476003608395       -3.18156947554014       -1.05415142649356
C           -0.83335055648420        0.07099308450371       -0.04333525349906
H            0.80732519008829        3.08465004584037        0.46958486474401
H           -1.29151416914372        3.50552233012559       -0.12066504545213
H           -3.52088692444034        3.17295189529289       -0.78632702175413
H           -4.20133561442680       -0.57478513851544        0.44968014757124
