27
 energy: -42.954124781577 gnorm: 0.000332703473 xtb: 6.6.1 (8d0f1dd)
N            5.07473369192874        1.03363913871844       -0.60056563966353
C            4.02042263319708        0.61874049470150       -0.41938854959037
C            2.72094872044997        0.10201252128763       -0.19812585723738
C            2.59557334393248       -1.28987796246603       -0.24978925852819
C            1.47462330710404       -2.02666300894222        0.04480368214002
C            0.15193981042551       -1.61890184267177        0.26557341245410
N           -0.69775103068429       -2.59848904972004        0.65514264465051
C           -0.42354850622951       -0.31316483927140        0.07596665774343
C            0.34686074503397        0.91075042060163        0.20891903688690
C           -0.34870183074320        2.12935231513213        0.41812226059611
C           -1.71182195583923        2.23401600155752        0.35845289575880
C           -2.46456312870341        1.10851328154266        0.03425858633519
C           -3.82293544180910        0.92582316289532       -0.19140066778133
C           -4.02530219346912       -0.41967718777610       -0.52703554273732
C           -2.82373901075262       -1.10292083946419       -0.46864757903042
C           -1.80167988945982       -0.18424153887660       -0.11471056426353
C            1.73441142368627        1.03555551749889        0.10223807625211
H            3.50123813512253       -1.84179275590458       -0.46858310309428
H            1.62267066446078       -3.09983538736217        0.09936374710061
H           -1.61868631097580       -2.34306061538222        0.97449988669888
H           -0.32836984666051       -3.49695105603663        0.91452922115363
H            0.24238249967814        3.01472822905402        0.60234869551147
H           -2.19741533936025        3.18596430548441        0.51906867409280
H           -4.57925108251595        1.68714648259520       -0.14417212237356
H           -4.97251092062854       -0.85625877406222       -0.79196749190768
H           -2.69643563655189       -2.12975536547802       -0.76132433462471
H            2.10125200416539        2.05316365924468        0.18962115125794
