29
 energy: -50.405519266649 gnorm: 0.000514038465 xtb: 6.6.1 (8d0f1dd)
N            5.22397431479863        0.35377493808266        0.03787022484996
C            4.07893966349116        0.22689469432936        0.01955841347705
C            2.68182692069064        0.07178425833828        0.00215843955422
C            2.20377298914822       -1.26027251658636        0.00003447464897
N            3.14106479814995       -2.24450102791446       -0.00053941859872
C            0.87507625720362       -1.68026187219331       -0.00760551384707
C           -0.34254027947211       -1.00257406775487       -0.00735177510605
N           -1.39181520326629       -1.83580134249081       -0.00857674503195
C           -2.64353147238307       -1.39070893370240       -0.00542452365129
N           -3.61120947966506       -2.32623206159974       -0.00786206506331
C           -2.93155813110401       -0.01443964908685        0.00053684201411
C           -4.07921459804352        0.77810649066084        0.00744504475457
N           -3.76831044527709        2.08455440985890        0.01151739339253
C           -2.44134767600241        2.17738341787053        0.00640056272197
C           -1.82877555752776        0.90747698481663       -0.00054365561107
C           -0.49593579932262        0.45362042166829       -0.00637588809918
C            0.53328578009517        1.38553850873630       -0.01420202382304
C            1.92377279714377        1.26685955284827       -0.01158151105713
N            2.62290922022118        2.43274714852909       -0.02505027547087
H            2.85696412703758       -3.20625839454486        0.02075238229734
H            4.12073871995597       -2.02304560168515        0.02550956340627
H            0.74197417030688       -2.75621824896577       -0.01027691821530
H           -4.57831980271397       -2.06141827591946       -0.00495220749137
H           -3.34765028860350       -3.29532347461723       -0.01226825083787
H           -5.10951896405822        0.46901478964385        0.01013658752192
H           -1.97480055952710        3.14619194675199        0.00922656791442
H            0.18834592402608        2.41359587757959       -0.02089708429239
H            3.62740018118096        2.43057885364929       -0.00825565956929
H            2.13760418051696        3.31071844309748       -0.01730219318737
