31
 energy: -53.843881170101 gnorm: 0.000338739108 xtb: 6.6.1 (8d0f1dd)
N           -0.13419030846745       -3.22842110917748        1.09252495499934
C           -0.52356695970985       -2.21539084690313        0.69164518444861
C           -1.04972980718831       -1.00324279571793        0.24724279489494
C           -2.45798572644215       -0.99849283127823        0.09060169063335
N           -3.11109106698599       -2.18276709596142        0.24096454889166
N           -3.26823449525993       -0.02424190559429       -0.29017552624955
C           -2.99246858900515        1.27398414367389       -0.30698178628575
N           -4.05798788637731        2.03468181576400       -0.68004615331378
C           -1.83596583108663        1.94646124106101        0.09906002332066
C           -0.53954671395359        1.46941809751650        0.29311546394499
N            0.33757880763148        2.43079335706627        0.62700475064892
C            1.63240268859691        2.18567484015111        0.61553143931914
C            2.14635404388748        0.98658857492399        0.17586241608159
C            3.47401192100144        0.52996399945748       -0.05665147192638
N            4.59888864069151        1.27734284175715        0.08432317455183
C            3.39892543530073       -0.77845860723697       -0.52805068935562
C            2.06266585522464       -1.19048634265851       -0.57327157718793
N            1.67399573144541       -2.35316915724818       -1.15008333118882
C            1.23798282271401       -0.10369624054421       -0.10901559004256
C           -0.12587966326086        0.08229102772175        0.09575178964903
H           -4.11490505901655       -2.15072684711319        0.22515807058855
H           -2.64820642835020       -2.97426308875693        0.65243473425511
H           -4.85847160166830        1.55807780427227       -1.05520237045300
H           -3.93796284577319        3.01339546003812       -0.86506500357549
H           -1.91633275395499        3.02215337177871        0.18706585137140
H            2.26299549564058        3.01134166776637        0.92704829333762
H            4.53828948565281        2.12708109019598        0.61797238592300
H            5.48649224844467        0.80467899366904        0.08089572163691
H            4.23594612098127       -1.38391819253784       -0.82581656349086
H            0.77305393229029       -2.74181213389945       -0.92597834182005
H            2.40351363289572       -3.02733461568645       -1.31786625930654
