30
 energy: -55.721645308276 gnorm: 0.000944872000 xtb: 6.6.1 (8d0f1dd)
N            6.10067309955230       -0.91093079595841        0.76277268677014
C            4.99488089117239       -0.66104230611319        0.57806428262375
C            3.64933305753711       -0.34425727765251        0.35064130783750
C            3.13229379164641        0.96173960687748        0.25960680431815
C            1.75539110040435        0.85921577984582        0.04596571398758
C            0.77501443997130        1.82577099901346       -0.22518826823729
N            1.07035678242483        3.12923920638930       -0.33438749160668
C           -0.57260344318077        1.38476212269208       -0.35104821431358
C           -1.52795122129715        2.37611843089643       -0.64268586612763
N           -2.20753368251234        3.24214507039211       -0.97555211849413
C           -0.93905737028960        0.03297614729603       -0.23460538864595
C           -2.25920468617075       -0.31013296586296        0.12354597824502
C           -3.04489520398189        0.72383470283360        0.68552993428268
N           -3.72813820941744        1.47118847287072        1.22921908744204
C           -2.90063474137068       -1.58201887683419        0.12937927079990
N           -4.14256268359927       -1.65699217782632        0.65668949017498
C           -2.38713156293869       -2.74697554947119       -0.46129264636083
C           -1.10833576956349       -2.92675703321491       -0.95141716142817
N           -0.03105463298707       -2.21935054896958       -0.72405999254286
C            0.12421905204192       -0.98823260311357       -0.30532423387815
C            1.42381873881413       -0.54156257668546       -0.00664601088844
C            2.60912456706425       -1.26579156048627        0.17199519944016
H            3.71616231006767        1.86062104363566        0.34108416188376
H            2.01539691069807        3.44346838430522       -0.20664720692569
H            0.34543700549602        3.80102042080221       -0.52735786281488
H           -4.60262880561998       -0.83673639757135        1.01429086533502
H           -4.65101195318116       -2.52205439914656        0.62072411458579
H           -3.07097551216629       -3.58162598987174       -0.54224441655055
H           -0.91097094826855       -3.83316486056412       -1.51555891764919
H            2.69983976655544       -2.33467433560803        0.18249729193795
