25
 energy: -38.697847615899 gnorm: 0.000484063467 xtb: 6.6.1 (8d0f1dd)
N           -0.46797693028428       -3.10989439112586        0.07630016214910
C            0.07601957221849       -1.82979636597019        0.06917505820123
C            1.46717586378884       -1.69773317168501        0.12762761510549
C            2.05176998004410       -0.45648580030173        0.03141522642739
C            3.39586709122014       -0.04024083115534        0.03409665070621
C            3.40875835486143        1.34317156932987       -0.05044094799189
C            2.09706324647014        1.82721386579243       -0.11003538755275
C            1.22014860894000        0.73699453064484       -0.06225434775556
C           -0.18083181712993        0.64054308398603       -0.03554199409764
C           -0.93227387107423        1.82458847804642       -0.01373899769956
C           -2.29333963026103        2.02569117211561        0.16250077590827
C           -3.27722503536452        1.05043462169645        0.21224818926970
N           -3.18735041687026       -0.20737559560306       -0.18320113627948
C           -2.12277029947130       -0.92196006993630       -0.38635231543780
C           -0.75673684080624       -0.70275189628249       -0.06070525860188
H           -1.37797510939101       -3.20962979899576        0.49716201400029
H            0.17853542658825       -3.83109267385623        0.35671286464470
H            2.07685213103372       -2.58750154285372        0.21738450856034
H            4.25198555603757       -0.68626442184466        0.09485471509383
H            4.29090370964876        1.95874471860180       -0.07513251191300
H            1.83521859308104        2.86712635993426       -0.18214632567291
H           -0.33605326743196        2.72706200760892       -0.04182144139806
H           -2.62033087249721        3.05009027497943        0.28892563975393
H           -4.28196448692214        1.34070194960305        0.50030845542718
H           -2.34572514792831       -1.88346716742870       -0.84375205714703
