29
 energy: -54.435537576650 gnorm: 0.000700597507 xtb: 6.6.1 (8d0f1dd)
N            5.19749046618210        0.98336246711608       -0.30403387834387
C            4.12622844523984        0.56789846638680       -0.22483781333965
C            2.86710843124972       -0.01119241072776       -0.14496512715012
C            2.62546592549442       -1.42420913034037       -0.09559701765306
N            3.59052031896571       -2.36706611817019       -0.05193777260243
N            1.33053713076324       -1.72689664416903       -0.03406863985673
C            0.66199856084046       -0.53439495939838       -0.04509477027943
C            1.59876035306819        0.57162423510432       -0.11381658836532
N            1.21626508839559        1.84754677308441       -0.13444925441380
C           -0.07021111973897        2.09864380730577       -0.03159231724779
N           -0.39234045218816        3.42824488103296       -0.03865861724348
C           -1.09823423026280        1.09575558640876        0.10314744292902
C           -2.39541895466125        1.50485773426344        0.43204867285828
N           -3.54697525149891        0.89322754994720        0.31281166865135
C           -3.72201294774996       -0.36690553855259       -0.08969724221910
N           -4.94893884328789       -0.63031333385299       -0.57550660528761
N           -2.92539268077509       -1.42075763665160        0.02168493343479
C           -1.61330773365037       -1.41371047159067        0.17436160796871
N           -1.04942943555248       -2.59161026515370        0.40452260287401
C           -0.69511806829587       -0.28887048496926        0.03237704647873
H            3.33051373878856       -3.32930097121021       -0.17492624142743
H            4.53655695536014       -2.09211541100242       -0.25059292131493
H           -1.29008471102294        3.72413533484756       -0.37676687159637
H            0.38841864656543        4.02823972063040       -0.25342200175090
H           -2.50831805529234        2.51715345594598        0.81124097104786
H           -5.64418433153358        0.09410388436545       -0.55655874679730
H           -5.20149801458370       -1.58033728799929       -0.77940612396471
H           -1.64198458065209       -3.40338490264634        0.45445294406638
H           -0.01583189506786       -2.63549708140382        0.33687098694486
