30
 energy: -50.925239048176 gnorm: 0.000646140284 xtb: 6.6.1 (8d0f1dd)
N            5.78116281784096        0.33258956496105       -0.29736811308957
C            4.67218641459599        0.04807638682330       -0.18521597203986
C            3.31105905114738       -0.24089539661228       -0.07016528384711
C            2.72411982073283       -1.50108447327367        0.05927997648120
C            1.33570333420597       -1.32446204595287        0.08529901917984
C            0.29973542704192       -2.23327592406063        0.15421014752423
C           -1.01056393339230       -1.77293221426379        0.10554636755761
C           -2.02912862750614       -2.74428231367047        0.12165685756852
N           -2.83618148014216       -3.56345632370327        0.13636184218200
C           -1.34747758149774       -0.38342786296164        0.04769645750367
C           -2.70230264572075       -0.08821871484084       -0.08880798525416
C           -3.41847609941620        1.11307587463652       -0.15167555280382
N           -4.74409514433561        1.01352547118917       -0.44258801623740
C           -2.90914953054375        2.39727990647088        0.08247232750439
C           -1.60199295883699        2.73649649719342        0.37054464065575
C           -0.46144989646374        1.95805840194190        0.37061665240820
C           -0.26791922641624        0.58660626072130        0.11559697423613
C            1.04595675526753        0.09776883445118        0.01677645977198
C            2.29223226550884        0.75297790587316       -0.11471727892470
N            2.55553081373813        2.08841136718795       -0.26839036103947
H            3.24908395911458       -2.43633991973560        0.11017865090764
H            0.49173057440785       -3.29508937846343        0.21686639617448
H           -3.33254299549779       -0.96622862473574       -0.19247192582225
H           -5.33778832013575        1.81895594456990       -0.35740573162380
H           -5.18243336710104        0.11003849970740       -0.47619649125222
H           -3.63178890832599        3.20327019415718        0.06893253396009
H           -1.44135899756821        3.78217391882545        0.60615989335956
H            0.44094321134707        2.48513182542933        0.64616590424153
H            1.87045679469878        2.63835354706881       -0.76422939061765
H            3.51429175665248        2.30190620416643       -0.50624003836560
