29
 energy: -51.197874305373 gnorm: 0.000479510457 xtb: 6.6.1 (8d0f1dd)
N            3.85571449596026        0.55413724541838        1.30536641135531
C            3.01968052615242        0.00675026874589        0.73884474484359
C            2.01169591354668       -0.80914017445851        0.16903785445265
C            2.41645177687004       -2.13783709156994        0.03766419453546
C            1.70051905093148       -3.22740254360601       -0.41251839650059
C            0.33326000639236       -3.27289581599680       -0.68154361663725
C           -0.61432570301273       -2.29741001177981       -0.48779326851728
C           -0.49422537874997       -0.93454394489046       -0.13042238539586
C            0.75259609526437       -0.19229165345484       -0.08926628748795
C            0.71659289437514        1.20877726938084       -0.21223930073539
C            1.88022981441254        1.94964420824162       -0.49545429592251
N            2.72307313897069        2.65786822927160       -0.82930941793543
C           -0.48806871555866        1.96645193619191       -0.16420903082567
N           -0.46383408835059        3.30143173657072       -0.30687904956795
C           -1.66735620034510        1.25729774926781        0.06506832664344
C           -3.00692673645454        1.62293739221021        0.24057198157424
N           -3.79452515440090        0.55765791349771        0.40299792465981
C           -3.01857813816586       -0.53402529019851        0.31531828524131
N           -3.57203516977073       -1.77154070822871        0.44494673144665
C           -1.65345096169021       -0.18677266270137        0.08393892285180
H            3.45418183141792       -2.31733658747508        0.29555864149424
H            2.25142257589789       -4.14888960302444       -0.54158012065997
H           -0.04075627594259       -4.22293889081511       -1.04367532998267
H           -1.62934205064922       -2.58786478480902       -0.72610152518494
H            0.40784299776259        3.77878490036247       -0.46696946188984
H           -1.31690659199223        3.82776631039412       -0.25712427204801
H           -3.43059045859767        2.61025078255442        0.27617667907889
H           -3.00406992368027       -2.49997541707656        0.84835640025207
H           -4.53316437659343       -1.74827098822204        0.75180435356179
