32
 energy: -58.382801486693 gnorm: 0.000658771447 xtb: 6.6.1 (8d0f1dd)
N            5.23779829139073       -1.50815886927274        0.40230658666281
C            4.27025680167197       -0.89322649507342        0.31025097841400
C            3.10823885216486       -0.13087121186066        0.19113900549710
C            3.03049078751632        1.26789199840240        0.24263210013788
C            1.70266786289426        1.67705300029085        0.08716887681963
C            1.26431963395414        2.99182182691926        0.19712793547897
N            0.88265563260105        4.07731454712919        0.28565106366639
C            0.89691855135920        0.50422319701469       -0.06298512956997
C            1.79489665865255       -0.62378016072589        0.04357277218275
N            1.37883925325003       -1.88629630644335        0.03661227076204
C            0.09278034445763       -2.11696982546304       -0.04129224323575
N           -0.27289296804221       -3.46929941767673        0.00447695098583
C           -0.89234739013590       -1.09514136119099       -0.20442554108539
C           -2.28712074838330       -1.43491037146948       -0.33073974355714
N           -2.63065784087185       -2.56415852062737       -0.96617088660090
N           -3.26738198759278       -0.77830674935801        0.24789806823214
C           -3.35454640865607        0.49975989457788        0.55904101915973
N           -4.36593726268933        0.83418902100588        1.38474306573627
C           -2.61521783259708        1.52250542717120       -0.07568016454639
C           -1.35553934356959        1.36372760321834       -0.60550762155664
N           -0.86099329475130        2.29318227691264       -1.44231400564236
C           -0.46078833152552        0.25524777207550       -0.26260578742717
H            3.86473771682826        1.93038593473003        0.39034579041831
H            0.55795554141011       -4.02475701437514        0.17445675686408
H           -0.99510850533564       -3.68088607122275        0.68136759377222
H           -1.90952642147676       -3.18700806691119       -1.29522631786767
H           -3.59934411740915       -2.82991445889169       -0.99743628898392
H           -4.49600049722337        1.78533284718446        1.67575254917354
H           -4.90901107647196        0.10562926585940        1.81236261066485
H           -3.08247114653040        2.49397820697520       -0.16255787199103
H           -1.31822984248416        3.18698709254356       -1.51787844228835
H            0.11766362619549        2.27074488685167       -1.67965588647620
