28
 energy: -50.712919874583 gnorm: 0.000389645327 xtb: 6.6.1 (8d0f1dd)
N            3.58829674698284       -2.80179686564982        0.00862368526923
C            2.96205465430873       -1.83533011436205        0.00683549737217
C            2.22122342422109       -0.63831833551674        0.00262105577910
C            2.99988631414717        0.54219605746845       -0.00555612250344
N            4.34302937458428        0.42371790423873       -0.01786318974024
N            2.60779254828208        1.81703797456366       -0.00073543615706
C            1.38874185239702        2.27946288501993        0.00488605764564
C            0.11260061798697        1.68970435919412        0.00048137970331
C           -0.96243081928862        2.61608456210860        0.00177665381277
C           -2.28447185563941        2.26114517345878       -0.00189497265147
C           -2.58989445073818        0.90223194243758       -0.00807678164651
N           -3.76232570696128        0.26406271808951       -0.01761220502091
C           -3.41904621562397       -1.03910268268141       -0.02373703385488
N           -4.35143195195036       -2.01414750871729        0.01796645742227
N           -2.10260540674404       -1.30395849710338       -0.02256707144824
C           -1.51952510600657       -0.07755796105127       -0.01009041825464
C           -0.16929187129589        0.27549691087570       -0.00400268850332
C            0.80898713297795       -0.78263694227181        0.00289556713855
N            0.32601595156801       -2.02131532396636        0.00815632649056
H            4.79804566832143       -0.47259982709110       -0.01649013841659
H            4.88184587129644        1.27200311436757       -0.01856342768720
H            1.38518781034379        3.36794061011386        0.01231603146780
H           -0.70621964771216        3.66620754265307        0.00604833891984
H           -3.07067547046639        2.99931743734509        0.00008627869998
H           -4.06740948010292       -2.94772112249917       -0.22110112324241
H           -5.29646228697517       -1.73566656556786       -0.17997408360367
H            0.95086670734570       -2.81125052789095        0.01773453225256
H           -0.70916286885853       -2.12182320116526        0.00642450775673
