26
 energy: -43.239813900884 gnorm: 0.000634066370 xtb: 6.6.1 (8d0f1dd)
N            2.09991276669830        3.02325287811045        0.44452077708764
C            2.09109449201930        1.87714888970240        0.31115556432407
C            2.07649466832428        0.49814773685395        0.13785716143226
C            3.21133741220881       -0.31997956444440        0.24976660357008
C            2.83949904922426       -1.65233937562373        0.13375673369743
C            1.45096499144208       -1.70975465582582       -0.01112423779323
C            0.57119208805746       -2.78658571326005       -0.12793549826965
C           -0.77628317797146       -2.54861950595383       -0.16382466841280
C           -1.31478955786223       -1.24184835465791       -0.10347996006789
C           -2.71912247726819       -1.13404379835627       -0.01134247442239
N           -3.44827074352130       -0.17645864186008        0.48550591385667
C           -3.12512204342408        1.08381364463760        0.68126506213962
C           -2.08921380700798        1.77733629732950        0.08242393679545
C           -0.92213660531755        1.22108083670979       -0.45274345491779
N           -0.16493602161298        1.99167102140996       -1.24727189826198
C           -0.42944197640750       -0.10813156160675       -0.14968411474589
C            0.93873736131531       -0.35338066138934       -0.03797242823061
H            4.20930600666937        0.04848853916072        0.40860017399288
H            3.50085747072868       -2.49738303316808        0.17857003978537
H            0.95475936901421       -3.79594178079022       -0.16183675126905
H           -1.47050745664098       -3.37506283798188       -0.20254740117037
H           -3.28895045402162       -2.03179931704790       -0.23621995550877
H           -3.85676706460962        1.63932166005913        1.25793100492738
H           -2.16791126147219        2.85634830183014        0.03551117663028
H           -0.35704887742915        2.97633973398207       -1.32964603363090
H            0.74299294366450        1.67337505778074       -1.54406860483789
