28
 energy: -51.499772850486 gnorm: 0.000395710490 xtb: 6.6.1 (8d0f1dd)
N           -4.92174538116767       -1.25382102621365       -0.49896015458388
C           -3.94704906120210       -0.66312557004694       -0.35848232298758
C           -2.74647654899803        0.05839471849067       -0.17882307098157
C           -2.79239278072937        1.41043178403790       -0.49954988954012
N           -1.95279823690051        2.35101058866873       -0.15590976593774
C           -0.71946390119056        2.24529739123705        0.27822211311369
N           -0.24514046196959        3.33502670692447        0.90346725874183
C            0.18604890060087        1.13670051770894        0.05431101867219
C            1.53772553752734        1.44343920279106       -0.15872916598932
C            2.52250054694773        0.47021906784936       -0.25556743502034
C            3.86127543608177        0.84067945891039       -0.49964190789210
N            4.94900210353693        1.15100318708671       -0.69207486150212
C            2.16685424187409       -0.86943361501580       -0.06585410845948
C            2.84810865758128       -2.08931129190264       -0.02029624418385
C            1.87709059420636       -3.04593948222411        0.23197372509067
N            0.64413831875418       -2.52080269792946        0.35218482192165
C            0.77355171332233       -1.19247703095347        0.16954252802460
C           -0.24095591062851       -0.21957606288313        0.16007923442748
C           -1.60873488204924       -0.68776214748779        0.25046206098313
N           -1.77733035301673       -1.94983039508133        0.61234573159578
H           -3.68558329237794        1.77728826747819       -0.99536928295667
H            0.69109299542532        3.36975819035419        1.26417112550734
H           -0.86014307003069        4.12158283760967        1.02677767941422
H            1.82517360950217        2.47614670883220       -0.29865841706614
H            3.89969850833716       -2.24984337666119       -0.15135783567561
H            2.01476884987430       -4.10651340932249        0.34443714527666
H           -2.69882791508756       -2.35940951461604        0.56881581060451
H           -0.89430269102617       -2.53446781333661        0.64378819239426
