23
 energy: -40.061728355889 gnorm: 0.000726057859 xtb: 6.6.1 (8d0f1dd)
N            5.24524169995401       -1.05279405543267        0.41889983660366
C            4.17237531166270       -0.65816560370787        0.31125370812640
C            2.86028045644176       -0.18211514350261        0.18047910561318
C            2.49894926352268        1.15643948994494       -0.04198658159337
C            1.10277021715673        1.21085928658009       -0.10056028304552
C            0.19105025914887        2.22074949118054       -0.38482423652176
N           -1.10966800342267        2.04744159997011       -0.28897348375622
C           -1.61591311189078        0.85151872973164        0.01233289703905
N           -2.86440632961036        0.87055856502462        0.43063560177891
C           -3.77132127490838       -0.04986450215074        0.53710896407370
C           -3.77347282931948       -1.32748854532665       -0.03882524290544
C           -2.63864066448752       -2.02580134419682       -0.41177685228126
C           -1.31162591456147       -1.63809892180755       -0.26304054823548
C           -0.78392940554747       -0.37202308607582       -0.00727256865172
C            0.59775809834111       -0.14041154795401        0.08205620516997
C            1.70296209683421       -0.98037706384301        0.24304754070715
H            3.17800011574454        1.98118591565465       -0.14903285621194
H            0.51215290880091        3.21656073205923       -0.66536472294743
H           -4.66333626370637        0.27015519691967        1.06760449633190
H           -4.72792936064711       -1.82745075366536       -0.12933550580053
H           -2.79373708691962       -3.03458363850368       -0.77413211727320
H           -0.57343507839164       -2.40982769576941       -0.44671285177561
H            1.69593226120532       -2.04175327152978        0.40963175685559
