32
 energy: -53.575969871359 gnorm: 0.000425805111 xtb: 6.6.1 (8d0f1dd)
N           -3.31033047201342       -3.47629293570594        0.61370972241177
C           -2.54778350590511       -2.63643678771840        0.42844748478891
C           -1.61104420477945       -1.61418393882489        0.19537358802629
C           -0.26250670415454       -1.91305521412202        0.08635108248892
C            0.73933457753640       -0.94595979559960       -0.10867031221661
C            2.06510817459308       -1.46471373359562       -0.34247121767400
N            2.14069673178566       -2.76435696268671       -0.77060239908228
C            3.27401376448498       -0.85329961861089       -0.08745457515531
C            3.54488841632498        0.46828401080300        0.28840223893341
N            4.84992968365947        0.76084758956602        0.58352709136306
C            2.65424234743863        1.52926750776197        0.23036062561085
C            1.29786587186177        1.56092141852003       -0.10225340340694
N            0.76240924595044        2.76628145960734       -0.31941668141915
C            0.37751771528138        0.44250950880999       -0.12692243754733
C           -0.99666374776912        0.73500652812919       -0.10904027407052
N           -1.59346746682397        1.94989267278955       -0.18915126183686
C           -2.92031161756398        1.73722810202152       -0.09456767467723
N           -3.80175476746317        2.77962861181517       -0.22146600166573
C           -3.23734903658944        0.38309903630088        0.05905554095223
C           -2.01625699234688       -0.28043977861281        0.05187405921004
H            0.02276307540570       -2.94617910720778        0.22155694182013
H            3.04459472123784       -3.11062956674240       -1.04362608554741
H            1.35103880051021       -3.16292163484078       -1.24691626607729
H            4.14942811856712       -1.48397776639955       -0.20019686484145
H            5.05837073761353        1.65366950165045        0.99495999156513
H            5.47099135614753        0.00499392800293        0.81319659910376
H            3.09430430842249        2.50484403118163        0.41343657171186
H           -0.28274557521954        2.80159670044079       -0.35444595574324
H            1.32916390371240        3.58686999232649       -0.18722030589478
H           -3.41523463783251        3.69480662431403       -0.05571598334893
H           -4.72178092544266        2.62633304137924        0.15696327178961
H           -4.21632073582935       -0.04280583405357        0.15788874852907
