27
 energy: -46.963124891800 gnorm: 0.000814248694 xtb: 6.6.1 (8d0f1dd)
N           -5.05677375144867       -2.15745369644280        0.43076899561708
C           -4.08597153491951       -1.54680956325161        0.35097009472030
C           -2.90409660627543       -0.80643575857213        0.24534436795650
C           -2.82992720249842        0.58715875854527        0.04676493440851
C           -1.48238764797708        0.93059959704723        0.00518603784103
C           -0.78857745407316        2.13713506216421       -0.22378078715675
N           -1.41900429198703        3.27800166440686       -0.54809474622316
N            0.53466150641061        2.21333917510988       -0.10737739324269
C            1.27631611258222        1.14439307824055        0.14800690815348
N            2.51535605560575        1.42959444835673        0.50466074610465
C            3.57369859368223        0.67248179732242        0.60834535323811
C            3.80699014160195       -0.61714701156051        0.15826851196660
C            2.83339919470372       -1.55437630237946       -0.21247928499569
N            3.26006939052460       -2.77592196225984       -0.62420927425958
C            1.44389562559230       -1.37048659293828       -0.10641096309514
C            0.70282876955147       -0.22241138838249        0.11066910943890
C           -0.70562590104522       -0.27286253158984        0.16761880507756
C           -1.60735173824046       -1.33476215006236        0.30753343717452
H           -3.67678645645894        1.24228318039290       -0.04975050480696
H           -0.86800984106236        4.11297518266553       -0.64503251947517
H           -2.42121931055450        3.32482951027428       -0.55975122510801
H            4.42051867756137        1.19239208772234        1.04993242577954
H            4.83488250840629       -0.95668852784959        0.14684619191844
H            2.60218602755062       -3.51262579883978       -0.80341708729634
H            4.24052948499191       -2.98994595955111       -0.65103685951000
H            0.85680080500097       -2.26648914465220       -0.27579020851285
H           -1.37330882322539       -2.37118115721615        0.46776574488708
