32
 energy: -53.562661369508 gnorm: 0.000865996372 xtb: 6.6.1 (8d0f1dd)
N            5.07871619235813        1.71190660944804        0.26154144881721
C            4.04232908493630        1.21285811263115        0.19147843838614
C            2.79595640951945        0.60262268924008        0.10333344409400
C            2.57603104540036       -0.79111222057933       -0.05634651983844
N            3.57583277100415       -1.73607074911873       -0.14369883451834
C            1.19213517276673       -1.00649857787419       -0.05187925886493
C            0.42556440394644       -2.17843340067711       -0.06935082424045
N            1.01644310745391       -3.41871387887334       -0.10528265295542
C           -0.95715009678328       -2.05240063693930       -0.05356041535074
C           -1.63371415505594       -0.82623208312191       -0.04758598089045
C           -3.03076170701331       -0.87295950099863        0.07538952368560
C           -3.98827566308608        0.14301426449490        0.13017616534942
N           -5.25806563411942       -0.20715005324647        0.48722195643469
N           -3.88000636469653        1.44198402841890       -0.15388875538190
C           -2.75147777069969        2.05958304738161       -0.43916582551813
C           -1.43042720942164        1.66656210610112       -0.37906371499347
C           -0.85902758649523        0.40459902435619       -0.10260217750637
C            0.52844598788660        0.27917902446410        0.01431738895371
C            1.55095801948570        1.25947774814220        0.16174517860247
N            1.41282385504972        2.61022629979796        0.33173700287126
H            4.49884469614013       -1.34063873491165       -0.26080350696840
H            3.39101843702795       -2.50374925714881       -0.77281781742993
H            1.92738509006577       -3.48426535940477        0.32060905904998
H            0.40609948304166       -4.19675424005671        0.09304227073224
H           -1.54818142335702       -2.95837738762258       -0.02848471284113
H           -3.43723049017574       -1.87114685647225        0.20173786784698
H           -5.96811155823659        0.49277698079349        0.35985446161959
H           -5.53297843724531       -1.17223579301099        0.50191513999739
H           -2.92411953453278        3.09117904888133       -0.73898972440169
H           -0.72231104218060        2.43521480508397       -0.65334585801498
H            0.57626945075035        2.92715130141390        0.79701826036100
H            2.25802894096555        3.09224757170647        0.60211759591134
