33
 energy: -58.103914188325 gnorm: 0.000551710626 xtb: 6.6.1 (8d0f1dd)
N            2.90671895621374        3.43452608102250       -0.44138378684039
C            2.47311554195165        2.37788655390288       -0.30012985712883
C            1.99168827125156        1.07296632281342       -0.11007490639145
C            2.85792258186458        0.17260116926077        0.58697872010881
N            3.77928987036285        0.68123214860738        1.42771917302882
N            2.92378934939323       -1.11385872116333        0.35050740835497
C            2.03506557136712       -1.91210303042821       -0.21139068431244
N            2.55607407488902       -3.04622317724961       -0.72075805225446
C            0.61314332997808       -1.74951955477583       -0.15939422785347
C           -0.18646435633234       -2.90522468277735       -0.03672384658710
C           -1.55135817478129       -2.84328523977196        0.08658028742162
C           -2.18220246259549       -1.60201874380714        0.10408538450382
C           -3.51761232691881       -1.24296681154295        0.28506632787764
C           -3.59731059866556        0.14880123961112        0.29283285053871
N           -4.73660232118488        0.90071598185993        0.40579968471503
C           -2.30190836363109        0.69264506999831        0.07958602184913
C           -2.04392941993880        2.05159548472467        0.15721710934547
N           -1.86892793187446        3.19132979272573        0.23401759978146
C           -1.39275412946895       -0.39338103372111       -0.05627754672502
C           -0.00662393299506       -0.46294367099649       -0.22925772283532
C            0.72733043690312        0.73426812261669       -0.60012267234883
N            0.12508045392954        1.58208464824642       -1.44957000424872
H            3.88798757902099        1.67691738287024        1.51526256602290
H            4.47409867589869        0.06685545554052        1.81349788175390
H            3.54955692328503       -3.18635750249076       -0.66822012885196
H            1.97138225107142       -3.73516642782287       -1.15662484609459
H            0.29891173735501       -3.86847765542823        0.02999316923099
H           -2.13188402511010       -3.74717038357461        0.20191731998811
H           -4.34140606396638       -1.91758846689950        0.42588567593812
H           -5.53185107630428        0.45539380115945        0.83339470957211
H           -4.60803131088229        1.87283184885908        0.63988752171516
H           -0.84028863089140        1.42880266584027       -1.69255836212977
H            0.48649000250562        2.51703334159086       -1.56119349844423
