32
 energy: -54.367379612522 gnorm: 0.000882384885 xtb: 6.6.1 (8d0f1dd)
N           -5.03662273804505        1.63605678395879       -0.47401682870518
C           -4.04327744088005        1.07515286745899       -0.31595704410517
C           -2.83370913901958        0.38036853608725       -0.13149731728219
C           -2.87125548233378       -0.99911768692628       -0.44673459028209
N           -3.96325208495630       -1.46804769388392       -1.09714161237249
C           -1.93844026647992       -1.92671366277624        0.01727037619929
C           -0.66094039320365       -1.70798744404846        0.50148855851948
N           -0.06485447429824       -2.71648965629065        1.16664502776674
C            0.14672975655243       -0.52726847168956        0.26819200420222
C           -0.37430324375634        0.79701684591625        0.29935065549151
C            0.52586884564243        1.88942510148259        0.21935885122648
C            1.88078403749808        1.73060064887329        0.08131783100513
C            2.40630940460410        0.44914796142209       -0.00099749947482
C            3.71651040276033       -0.01893918316448       -0.20804431823435
C            4.85648424040974        0.76927369941951       -0.32497649643564
N            5.79707975481306        1.42822587639481       -0.41395233552138
C            3.64872637985710       -1.42473290082082       -0.30446105211143
C            2.34475111119074       -1.83962874297711       -0.12791902126047
C            1.52828760635910       -0.70067377192870        0.07675688512080
C           -1.76660881454432        1.12617318419396        0.41149607059844
N           -2.09400468863779        2.31284637666569        0.96740516816321
H           -4.72624474966439       -0.85163575296693       -1.31867602778125
H           -4.09067268805930       -2.45558398807701       -1.22161743688480
H           -2.27143506417677       -2.95856926091979        0.01506447667243
H            0.88123472657716       -2.60569068870681        1.48917003514823
H           -0.52440093754141       -3.60301730078504        1.27470278614311
H            0.13391236455971        2.89525994027815        0.18528299660289
H            2.52987311055911        2.59089570393167        0.00424361285484
H            4.49233312859387       -2.06612471978156       -0.49035324217311
H            2.02367268338259       -2.86210935386116       -0.22342025142790
H           -1.38220054749246        2.91979017346519        1.33164898336702
H           -3.04151658196940        2.64836508055552        0.91960474547017
