31
 energy: -53.868023513817 gnorm: 0.000478033531 xtb: 6.6.1 (8d0f1dd)
N           -3.33492008221427        3.46256226936169        0.64519758497811
C           -2.56654462712227        2.62920547136408        0.45510918870451
C           -1.61910166459675        1.61782518589222        0.21740644972639
C           -0.27896110300062        1.94429614157448        0.06403299559764
C            0.73135727476429        0.98923864832458       -0.12915281413271
C            2.06290448087524        1.48481237842467       -0.38976851831769
N            2.16193422647415        2.76219115854665       -0.85433284664927
C            3.25067101174873        0.83962823815475       -0.10919082332853
C            3.42218811379316       -0.47573510064382        0.35505497987411
N            4.63730072109091       -0.81577891203322        0.85817991955827
N            2.59709978363111       -1.49556089858957        0.22606467478141
C            1.33300133737627       -1.49734773334617       -0.16566936416517
N            0.84890143579903       -2.68775763399648       -0.50948689274345
C            0.38456035535997       -0.39945869070272       -0.13071108027968
C           -0.97546351258936       -0.72425390908735       -0.08255420624897
N           -1.54171414668945       -1.95102064812843       -0.16512257121407
C           -2.87004260465366       -1.76445396781571       -0.03379034310615
N           -3.73350555675611       -2.81984084804135       -0.15020974810050
C           -3.21250429875633       -0.41603652243864        0.13853313595620
C           -2.00802451359276        0.27450764046921        0.10755041218112
H           -0.01128184273230        2.98668887503206        0.16358635927421
H            1.36258683029592        3.20043842866021       -1.27484468759310
H            3.06813646531188        3.10430171826113       -1.12236951869062
H            4.15710151755143        1.42287921871844       -0.22134379971521
H            5.29043753754737       -0.10620962457881        1.13543897479348
H            4.73729129488989       -1.74256730038261        1.23273821844413
H            1.46071297626307       -3.48143644852533       -0.41118290558356
H           -0.19371768319452       -2.76230282485011       -0.51067661681747
H           -3.32840238892005       -3.73136518065623       -0.01245770072166
H           -4.65237783183999       -2.68890127010756        0.23860318222446
H           -4.19898133141417       -0.01431593515834        0.26093556141323
