28
 energy: -47.472983332458 gnorm: 0.000626984900 xtb: 6.6.1 (8d0f1dd)
N           -5.46170563231569       -1.16455762212740        0.60444076113088
C           -4.47360895846840       -0.61905291914997        0.40068586412823
C           -3.25154285989922        0.05142432105662        0.14215380929822
C           -3.35071575365423        1.42898662463517       -0.09064895586661
C           -2.30265107469595        2.30534981796765       -0.28298001542681
C           -0.94042030379412        2.05012884147695       -0.23185072639974
C           -0.20119615103229        0.86781267390434       -0.09384518019189
C           -0.76994595649902       -0.48778184042747       -0.09153723442178
C           -2.12481860212966       -0.76648358427795        0.10379258700836
C            0.10493114915709       -1.60588456599348       -0.20499265177114
N           -0.40304288018741       -2.88926271489411       -0.31833611731249
C            1.48646307473802       -1.45107519137421       -0.12176442075897
C            2.03539956470808       -0.19488032441441        0.02290609508948
C            3.37642276079912        0.23969579884739        0.12892235916196
C            4.49537474984187       -0.58928645543448        0.16003684615186
N            5.40751241848468       -1.29028375985710        0.18069005933583
C            3.35951157311903        1.64710234361022        0.18462000793227
C            2.05240663349160        2.09648360604424        0.11115057465138
C            1.19193849008118        0.98224314491268        0.01201028234831
H           -4.35299238167099        1.83855988357181       -0.09997032560605
H           -2.57736211973379        3.33949223425121       -0.44803913701085
H           -0.32321052894853        2.93430490582305       -0.32268501587229
H           -2.34930203303865       -1.81159165093775        0.28649837625617
H           -1.22843730602187       -3.01798474957051       -0.88036964994736
H            0.29624986788262       -3.59879333038536       -0.47341362849714
H            2.12590878966016       -2.32243256621503       -0.16677355978407
H            4.23417402887630        2.26566767685632        0.27426413189759
H            1.76578629174980        3.13139430990186        0.14201549667717
