23
 energy: -44.063562099165 gnorm: 0.000367085399 xtb: 6.6.1 (8d0f1dd)
N            1.38442742971727       -3.84630636456963        0.63256278185365
C            0.90655963714114       -2.81881386236896        0.45173258363212
C            0.28816976234691       -1.56915293520153        0.25407319373649
C           -1.11150725343802       -1.47996568858880        0.22712844603689
C           -1.70501949749097       -0.27161737189866       -0.05464073397151
C           -3.06193425387081        0.16371261508526       -0.17787568700388
N           -4.16905082453475       -0.58170933754887       -0.12345938776344
N           -3.13349454562256        1.50148063081593       -0.35627354665855
C           -1.89213407682007        1.97110865709753       -0.33410723531867
C           -0.93668049855133        0.95051674756177       -0.15431164795212
C            0.43769721432412        0.91445541058386        0.05233173881582
N            1.14875902157715        1.91988388389290        0.52033525214713
C            2.43980981606891        2.03967595657617        0.67258154820082
N            3.41302005757431        1.50307688078667       -0.04336008541552
C            3.18568634115879        0.39995625293662       -0.73405949636593
N            2.28142262477659       -0.51849341620903       -0.52688949195734
C            1.07210315912299       -0.43007372061956       -0.01656555351135
H           -1.69146376081554       -2.37976485922598        0.37950566535580
H           -4.12407122629209       -1.57591437793003        0.00705279060476
H           -5.05928684330968       -0.12208269869677       -0.20550695502374
H           -1.70452390900136        3.02114597589784       -0.45983446743988
H            2.74491849150380        2.79303346570090        1.39325239490296
H            3.92969290613493        0.14627419292030       -1.48342406700454
