25
 energy: -38.702534883156 gnorm: 0.000841460721 xtb: 6.6.1 (8d0f1dd)
N           -4.30492162445881       -1.20719247739978        0.04159254108073
C           -3.08515471035501       -0.58294524396939       -0.01353361018765
C           -2.88172847162060        0.80443640911906       -0.00359647915486
C           -1.50541289853065        1.02903247650473        0.00235837311855
N           -0.85008004179487        2.17912911896282        0.00285391337000
C            0.46337466509235        2.12377656181235        0.00182210482044
C            1.25880256156980        0.95793128459953        0.00081566456084
C            2.64171213201815        1.14733069603564       -0.00210576113462
C            3.69487545691510        0.24503206037528       -0.00401507247930
C            3.64920760722237       -1.13918907300660       -0.00062257843671
C            2.52397780599988       -1.95578829479201        0.00474079751455
C            1.19110751761858       -1.59419240653101        0.00533354829702
C            0.56642096552419       -0.33872803403121        0.00114530401415
C           -0.83157584505144       -0.27513151640529       -0.00108744148606
C           -1.84209746696601       -1.24114192043221       -0.01112060332892
H           -5.10287738094307       -0.65377976686103       -0.22380608550060
H           -4.33468793057845       -2.17093127808756       -0.24798648282363
H           -3.64576880702787        1.55766089663222       -0.00201679759515
H            0.95850965083603        3.08793089159920        0.00115093186128
H            2.94103494850769        2.19053791798742       -0.00327289451209
H            4.68496503570693        0.68439246269656       -0.00746699543107
H            4.60503975076761       -1.64833428308961       -0.00153282620088
H            2.71961215842527       -3.02143117313231        0.00853473449801
H            0.49467347563715       -2.42335858895904        0.00999216881226
H           -1.72455075311433       -2.31016032162777       -0.01750404207627
