28
 energy: -46.670404052449 gnorm: 0.000500109879 xtb: 6.6.1 (8d0f1dd)
N            4.60594453864515        1.43634746118882        0.12553528855429
C            3.63090415503284        0.82528079380891        0.07606357253135
C            2.49339209877385        0.02771984181993        0.03320978829869
C            2.50451967727380       -1.40179750257722        0.05002962509978
N            3.63953240176365       -2.15311884107074        0.04730721326774
C            1.19487833642587       -1.87177962969129        0.00436243034633
C            0.32255081331215       -0.76718674704600       -0.03339344919907
C            1.15151026600251        0.43058892245969       -0.01963259262877
N            0.65982846656502        1.65647317462267       -0.11162147218764
C           -0.64889989620539        1.80803318657737       -0.13602572131875
N           -1.07076603605728        3.12268062249725       -0.19875078433591
C           -1.59789779435918        0.73597713718979       -0.02446007527924
C           -2.92181812567179        1.07017945325682        0.20966231196111
C           -4.07483798282129        0.28801427636381        0.30336217436504
C           -4.21590598795943       -1.06661580131305        0.08996470394923
C           -3.21108095692295       -1.99761561158578       -0.17381763873486
C           -1.84776849128955       -1.79920450068401       -0.19974341106810
C           -1.06574344245893       -0.63853413917887       -0.07652140176915
H            4.50382979431584       -1.69107030825212        0.27609458564894
H            3.56662626495702       -3.12734209479751        0.28485478694306
H            0.92402560499913       -2.91170691651255        0.01393756410607
H           -0.29031410367233        3.75160666066430       -0.32452027820087
H           -1.85990535790418        3.33164179799975       -0.78907677908428
H           -3.09807838308488        2.12713000508460        0.36927538202243
H           -4.98210523580404        0.83180383759247        0.53467847953357
H           -5.22367195384173       -1.45958029735890        0.14323805753802
H           -3.54306355300522       -3.01653850489448       -0.32865920018379
H           -1.26011955060836       -2.69785803396422       -0.34133784237508
