25
 energy: -43.503771939549 gnorm: 0.000442954219 xtb: 6.6.1 (8d0f1dd)
N           -0.84276285542382       -3.40924230919574       -0.64198803344766
C           -1.07327336217259       -2.31415261371603       -0.37935744090456
C           -1.50013558225758       -0.99551072179840       -0.11374886474043
C           -2.90066836961324       -0.91641404034483       -0.07523715642955
N           -3.71848685474043        0.06655617294578        0.19741804230964
C           -3.36949447223034        1.34428095408128        0.31075342300930
C           -2.17207342914729        1.97493073541923        0.08202261541101
C           -0.86040051574480        1.45039364098873       -0.08263191485957
C            0.15919146333927        2.39501313392877       -0.24756220942071
C            1.50624413775602        2.07017135918384       -0.25074974679354
C            1.85497254412586        0.75665100411797       -0.04495363407426
C            3.09150556912618        0.06267945350844        0.09605404073610
N            4.33223655898046        0.56667842883566        0.02536750772223
N            2.88493552310722       -1.24896440456511        0.33333495398286
C            1.57409322263684       -1.45413818120784        0.32624944179660
C            0.83848341847554       -0.26447668503306        0.09066181553549
C           -0.52256818528246        0.04082149981408       -0.00351846279195
H           -3.41839340939072       -1.85670872243607       -0.25433808074156
H           -4.21456749004542        1.97731562940354        0.56674799497364
H           -2.21249496442774        3.05768336504165        0.10885433823479
H           -0.12575191429900        3.43078924484119       -0.35991151209511
H            2.24963707965676        2.84381403591820       -0.38261398122832
H            5.10744026380577       -0.05662166116684        0.16565670230917
H            4.48927264275252        1.54687302800988       -0.11690592147156
H            1.19907957101363       -2.43960216207520        0.52286296787812
