27
 energy: -42.962902287101 gnorm: 0.000540546245 xtb: 6.6.1 (8d0f1dd)
N            5.10420269282363        0.71154799194032       -0.10314983668531
C            4.05491263967225        0.24675424960974       -0.01286023837333
C            2.78386805272385       -0.31277943892742        0.08692738323125
C            2.47863571350857       -1.65767898021685        0.39405007289681
C            1.11158512117565       -1.83257999622720        0.38023993875194
C            0.49164332151874       -0.58824688444878        0.08480627052003
C            1.56461111714396        0.37012337094602       -0.07388529033002
C            1.28167636320763        1.70646316882497       -0.33168352989020
C           -0.02608750840470        2.11402523798647       -0.31915448276138
C           -1.11345015457752        1.23055050147787       -0.11011585164412
C           -2.36180735457033        1.85798459243509        0.05618741947514
C           -3.60206483459400        1.35574089988743        0.37501291132068
C           -3.99429083433120        0.02179440755399        0.40331534947820
C           -3.24082187524611       -1.07495909309860        0.05501367081370
C           -1.87083187551972       -1.18386674122892       -0.21919518895017
N           -1.46264839340137       -2.39830881961316       -0.65730645478164
C           -0.84878352050937       -0.18935978028761       -0.03839284648779
H            3.21024139569108       -2.41633276494962        0.60808328249395
H            0.62106995809734       -2.74753066044464        0.66036674501907
H            2.08398980715183        2.41133721077589       -0.49475011897877
H           -0.25104852495986        3.16273029732638       -0.44746032125041
H           -2.31416100002924        2.93968981814547       -0.00192166997627
H           -4.37432346226019        2.08402867910445        0.58573366549435
H           -5.03030119930221       -0.17024942920915        0.65080654351902
H           -3.77906722863125       -2.01495590694648       -0.00651775047128
H           -0.52890799906404       -2.49719941319142       -1.02205459705814
H           -2.15101374561349       -3.08652847772487       -0.90966423607584
