25
 energy: -43.519006134989 gnorm: 0.000330716608 xtb: 6.6.1 (8d0f1dd)
N           -4.18636889761553       -1.99025326473859        0.16600490582250
C           -3.14618730498869       -1.50877808649863        0.12109856513969
C           -1.86506325805345       -0.91687005850907        0.06956752259263
C           -0.73734587595206       -1.69328859903617        0.22008048935989
C            0.56665165978332       -1.14998175330781        0.12802689110632
C            1.65367111542494       -2.04110777413927        0.19431292458169
N            2.86631531081124       -1.89861970113262       -0.29149712864418
C            3.41660227293128       -0.77079705468406       -0.66245192896701
N            3.16478911199114        0.43400787379781       -0.20285144616303
C            2.03087583649644        0.86281965447813        0.29504122016761
N            2.07589820188748        1.97025192773527        1.04317130923842
C            0.71797354818092        0.28201033793404        0.02494867858997
C           -0.40498159978088        1.07065989933090       -0.12160134860725
C           -0.59474476737188        2.46875493890171       -0.29916867498660
C           -1.94506284260034        2.70164705486642       -0.42452026981049
C           -2.65892705808419        1.48835005839946       -0.30260032810618
C           -1.73929957902149        0.47245101189616       -0.13904393763280
H           -0.83764077011332       -2.75897571082040        0.36538395338970
H            1.44643840123480       -3.04716909527896        0.54744560828374
H            4.28794785218521       -0.85495955725618       -1.30227190073702
H            2.96738085385280        2.39266926664518        1.24048531838337
H            1.22643534928520        2.38709595155406        1.38459657291061
H            0.18071325539324        3.20587397233608       -0.40569469242051
H           -2.39882348326160        3.66357894593097       -0.58441234267394
H           -3.72673809381495        1.37871615889571       -0.33489907941679
