29
 energy: -55.989696565202 gnorm: 0.000881186688 xtb: 6.6.1 (8d0f1dd)
N           -4.96502772924554        1.41895026534532       -0.75439024843148
C           -3.92977276213216        0.98374637052132       -0.51176331200920
C           -2.64830852787457        0.47082786957080       -0.21722760108869
C           -2.52506632229639       -0.91158802368929       -0.25977047165585
C           -1.42782689438912       -1.70720370668727        0.02309902638735
C           -1.68796218926693       -3.10283326190064        0.03423563047098
N           -1.97059881158164       -4.21399747093389        0.03060271482083
C           -0.06005668093496       -1.36255141339021        0.20943003130625
N            0.70277626264689       -2.43064498335723        0.44117540380017
C            2.01686822415935       -2.35674444352168        0.41993607472760
C            2.64757199209586       -1.18690126681923        0.04999211480779
C            3.98462808859045       -0.83249359208474       -0.24290047735130
N            4.08538863674452        0.43154929669005       -0.59942815084223
C            2.85073173198304        0.99290994548240       -0.52295978276496
N            2.72835347790369        2.24696517751102       -0.97436275239536
C            1.86858429523096        0.02181158456638       -0.10724005971880
C            0.48605353254661       -0.01876680701025        0.10456630379075
C           -0.28612278603477        1.16678284436250        0.33252166117546
C            0.44916118502342        2.26313095159908        0.79922773264875
N            1.03331291971259        3.17878278053078        1.18932917191951
C           -1.66461131267036        1.42024556967650        0.18545059750653
N           -2.10431303755398        2.67786571438119        0.40584494200126
H           -3.43628710895842       -1.44757417521553       -0.50458749643665
H            2.55211455127349       -3.26589995847124        0.65639352715190
H            4.84726317468226       -1.47187717845230       -0.21714740435855
H            3.60949881844719        2.67899003457995       -1.21236773091991
H            1.98718108840713        2.85689372744860       -0.66523977252135
H           -1.47367769090837        3.39946812744884        0.71185362683690
H           -3.08327280319972        2.89199038281871        0.31241522914217
