26
 energy: -48.034085056163 gnorm: 0.000417760251 xtb: 6.6.1 (8d0f1dd)
N            3.43206561038464       -2.77610431230190       -0.82307399064801
C            2.76218822896291       -1.87768061746455       -0.57819780902553
C            1.95734824163242       -0.74949876109830       -0.31692270415376
C            2.50045054300593        0.53334181825234       -0.44433311611629
C            1.74414964088998        1.62806160456515       -0.09056888709537
C            2.04829479360792        3.00906152671554       -0.04220444963339
C            0.91545958329974        3.68398123178377        0.38095519203935
C           -0.12609573806241        2.77135586575570        0.57701011584762
C            0.35195362663879        1.48239185578029        0.28351642360503
C           -0.25863048609269        0.22115846293748        0.24666151342780
C           -1.63760229190538        0.04735634996321        0.05164973912264
C           -2.44362187334835        1.17496431585559       -0.20172409968027
N           -3.18797278718497        2.02080076466249       -0.43279104075620
C           -2.33347177295491       -1.20744625227225       -0.10777765635261
N           -3.49533144190808       -1.21034372815528       -0.78229869414188
N           -2.00008355045173       -2.35943770713348        0.44425148403396
C           -0.81901603533007       -2.64220113118464        0.95072926909867
N            0.33603399607843       -2.13822548961168        0.63819307130483
C            0.64470343604472       -0.94774497467048        0.16076406591135
H            3.53015272316070        0.64072122093836       -0.75531370923605
H            2.99605371367249        3.44454303581150       -0.29869108414235
H            0.83967209853709        4.74417867110423        0.53769281160339
H           -1.10595467930472        3.01915208751624        0.93881425127150
H           -3.90696112668873       -0.35876416595687       -1.12480168758565
H           -4.01535874141334       -2.07054553886435       -0.81726735478272
H           -0.79095077887055       -3.50954973642801        1.60184330708379
