29
 energy: -50.405227633353 gnorm: 0.000675001103 xtb: 6.6.1 (8d0f1dd)
N           -5.51022737481219       -0.21803646194143        0.18319983995987
C           -4.36242573859478       -0.28722828159255        0.13955964858102
C           -2.95871013078593       -0.36415313573688        0.07933085713168
C           -2.41143061301926       -1.63819230456716        0.24154822047738
C           -1.10564070580215       -2.05349603386593        0.17951991829174
C            0.09566807409561       -1.33014074813764        0.02681865695583
N            1.16475069971676       -2.11954469470166       -0.05096305143086
C            2.40366596752239       -1.63071892616865       -0.12593646664622
N            3.39026234190516       -2.53415920386143       -0.28360611338394
C            2.63826661902257       -0.25405719215104       -0.03348027377307
C            3.76165415868056        0.57733180121241        0.00722258418586
N            3.41886074646435        1.86105908708772        0.14191096793075
C            2.07725080742058        1.91745747378233        0.17740632281143
N            1.45136984574840        3.13024287072972        0.31765228863340
C            1.49805996823475        0.62472999417664        0.05137440443841
C            0.18916034844109        0.12586607995876       -0.01394784988320
C           -0.87985676300398        1.01529452039434       -0.18410894850979
C           -2.25835565564004        0.84776838228883       -0.17615814801567
N           -3.01656763113272        1.96303858953339       -0.37014740948924
H           -3.14544674689566       -2.41911236947056        0.40880689841611
H           -0.93617975443326       -3.11824854682265        0.27311863846680
H            3.15008256364891       -3.50959848163363       -0.26840194326974
H            4.35190033351674       -2.25109012658836       -0.25018324737839
H            4.79974963720842        0.30097124322604       -0.03802481603825
H            0.62537853212765        3.13943864683288        0.89824190064049
H            2.10825286495762        3.86903146778773        0.52853283886141
H           -0.56914479301302        2.03349727985273       -0.38671378289239
H           -2.58077067621672        2.81511511504923       -0.67383343818079
H           -4.01381299766239        1.87728305262735       -0.46613792059086
