28
 energy: -51.486775608015 gnorm: 0.000849444220 xtb: 6.6.1 (8d0f1dd)
N           -5.52162964355557        1.03875402901494        0.01632227749155
C           -4.42947383053165        0.68217191278411        0.00908284026949
C           -3.09367355013266        0.21816834312672        0.00666769043629
C           -2.12602311900594        1.20975198234897        0.00226655959963
C           -0.73128019829270        1.15941457566656       -0.00430581572170
C           -0.05698275148882        2.40228278735059       -0.00887361938893
N            1.24136561981253        2.59035335222791       -0.01654459803934
C            2.00535255160290        1.51060274521811       -0.02032189397563
N            3.34054722194935        1.50584592930802       -0.03040944541869
C            3.70967957855765        0.22035397900848       -0.03349432208639
N            5.00084194859457       -0.14105622369168       -0.02361673316385
C            2.59223536431014       -0.67998498027196       -0.02595918960806
C            2.69764673481828       -2.06228739896286       -0.03429502881091
N            2.81975658373140       -3.20926128638638       -0.04491642363434
C            1.45908426612044        0.14850314672150       -0.01693328061132
C            0.07296452024281       -0.05555844244096       -0.00805822877943
C           -0.41744652181814       -1.36865873339825       -0.00321603321321
C           -1.69797186685297       -1.87097255461212        0.00379206269081
C           -2.92855726103664       -1.19985297657945        0.00760410220946
N           -4.04634324034546       -1.95157875743084        0.01265042442639
H           -2.53361425037188        2.21677087526510        0.00342262624858
H           -0.64602105490624        3.31147308570300       -0.00628966671015
H            5.69812529768157        0.57884360974723       -0.08563668979206
H            5.26057165600795       -1.10806176698844       -0.10110289187701
H            0.36001020480113       -2.12377888682148       -0.00568821209912
H           -1.77614783537756       -2.95171161419148        0.00608766409116
H           -4.95611387697387       -1.52030874490401        0.01565400308078
H           -3.98346122163562       -2.95460870361160        0.01374857448573
