31
 energy: -53.854336662902 gnorm: 0.000414491340 xtb: 6.6.1 (8d0f1dd)
N           -0.94393378677866        3.57469372986049        0.47481311060228
C           -1.03628837204524        2.43931729587919        0.29455650262454
C           -1.30730025187886        1.07335334008641        0.11713944822374
C           -2.68692202855998        0.74510244968624        0.33031593101196
N           -3.48304563600298        1.68808888057421        0.88651903759290
N           -3.32381573602190       -0.35828431093902       -0.00241627112153
C           -2.74360014771130       -1.48494079622291       -0.41841786604613
N           -3.57543569769364       -2.33117876449129       -1.07652984752441
N           -1.53735984176442       -1.94930047059169       -0.18839822626173
C           -0.41580554585924       -1.28082290845852        0.06974813523215
C            0.68038907127431       -2.05865640474611        0.43129806424897
C            1.98798529627323       -1.57726849810404        0.42791159971543
N            3.03106694056254       -2.39557492644182        0.77557453511660
C            2.19915696534033       -0.27415191019450       -0.03761546297833
C            3.37520378588055        0.45804606562939       -0.30329238956947
N            4.66969737350583       -0.00120060204104       -0.20590974986348
C            2.99573877789931        1.76510818750134       -0.67383417923404
C            1.62315664943903        1.86035040942553       -0.64831050363534
C            1.08145311395384        0.60371770040090       -0.26220208976845
C           -0.23533949561855        0.17336205761718       -0.08262810438375
H           -4.46783944526933        1.49566006101864        0.92912567626182
H           -3.14519091589683        2.62174233416055        1.04227692066124
H           -3.26616495580924       -3.27681068160451       -1.21471012203236
H           -4.55893105614591       -2.12846284085627       -1.06500808470362
H            0.49490397484158       -3.09806254377795        0.65778444679165
H            3.86147812935483       -1.94074453271181        1.11934810618381
H            2.78135181902478       -3.24834819653788        1.25194986755514
H            4.81099494491334       -0.96685337339880       -0.46375190406417
H            5.35982232734976        0.62275009952735       -0.59841947141203
H            3.68021803530829        2.54676061027198       -0.95018218520297
H            1.06048051653025        2.72916996597641       -0.92894562772104
