27
 energy: -50.969783812881 gnorm: 0.000618138536 xtb: 6.6.1 (8d0f1dd)
N           -5.28945918149063       -0.89811178480440       -0.58325437596943
C           -4.16817901228927       -0.67139596525073       -0.45555332845435
C           -2.80973277400019       -0.36149640947344       -0.29839390589436
C           -1.86748521758690       -1.35320954487391       -0.58030431056203
N           -0.58021745312615       -1.38881954428991       -0.36096125084417
C            0.23396099376109       -0.35953129975911       -0.09271404844889
C           -0.11091683874648        1.08518283498789       -0.12936084951058
N           -1.32007752356065        1.54947286618271        0.14658323030258
C           -2.47644886463945        0.93521654902166        0.22109793330661
N           -3.46171996325878        1.65100527016181        0.79767242999493
N            0.81557568095318        2.01340026822492       -0.29981107351462
C            2.11934949472682        1.73495376160006       -0.23740920114333
N            2.95647897586066        2.74940405776753       -0.51601051347678
C            2.56143834804889        0.44758243255581        0.11045173465675
C            3.78604378590094       -0.20977005910275        0.28534279041495
N            3.64479694733283       -1.53409415097093        0.42055834763658
C            2.33119443883093       -1.79864115206799        0.32718323199448
N            1.79950504420611       -3.02296590674789        0.40462095934191
C            1.57433488588605       -0.59609586963993        0.14771781987510
H           -2.26155977925229       -2.28990397219801       -0.96946890389263
H           -4.41011727981006        1.31665876378011        0.79796275378700
H           -3.25561447591267        2.59254744885612        1.08264906919164
H            3.94682618166986        2.64865145084236       -0.39281857558707
H            2.55841871811230        3.64629048382513       -0.73278560827441
H            4.77152488751516        0.22066053105812        0.30984277198630
H            0.82498477566147       -3.10635683650835        0.15576141351555
H            2.40673406230917       -3.82380618777644        0.39739625056722
