35
 energy: -67.921939154929 gnorm: 0.000633663236 xtb: 6.6.1 (8d0f1dd)
N            3.54321534262618        3.89266555922151       -1.17632004676863
C            3.13552351660732        2.87820688387424       -0.83346832591460
C            2.65141770318613        1.60868542683611       -0.42595623224372
C            3.61207488983104        0.61586283763424       -0.25824704026599
C            3.41323345217835       -0.67129772246825        0.21599264321951
C            4.60137477629021       -1.39365322288354        0.48055236980824
N            5.56046971507163       -1.99027387940163        0.68798360090602
C            2.19814280844938       -1.38348339734645        0.43630574675330
N            2.32863960393258       -2.55351789124857        1.08314152584643
C            0.88211819478045       -0.99151387542905        0.02495776900873
C           -0.07859396419447       -1.99399259648384       -0.22656062818082
N            0.28853286406275       -3.32393357190055       -0.40749119270351
C           -1.45822391537024       -1.69382583429519       -0.26860540154234
C           -2.37251691907414       -2.72674256913150       -0.56020561221385
N           -3.06210183883093       -3.60542979018185       -0.82527172143905
C           -1.89815719270499       -0.40094303381963       -0.01130257399261
C           -3.19256279524973        0.14692391257344        0.08144098424423
C           -4.41771613761997       -0.51677640811802        0.01189582261190
N           -5.45786662113357       -1.00474255123005       -0.02781524166077
C           -3.05129238004100        1.53755611731135        0.27514915039640
N           -4.04736171509439        2.42245028528724        0.42968726456316
C           -1.65733117383511        1.85690946489334        0.28808095210025
C           -1.21332579021320        3.16108760066281        0.49329375169605
N           -0.92481457193927        4.26096952751664        0.67641135560449
C           -0.92885672396681        0.66447494028833        0.12193139373728
C            0.45802030108683        0.40979657989142        0.00909412660556
C            1.27995512986403        1.51591532214808       -0.18663096976307
H            4.64123376493905        0.90138486462562       -0.44356459302818
H            1.52502071253422       -3.14032926160850        1.24437837396262
H            3.23740484377502       -2.86453665529726        1.38760162053184
H            1.14802598336289       -3.48458881316789       -0.91190481224214
H           -0.46847431407317       -3.91159124726789       -0.73125617140058
H           -5.00261730800216        2.10963469794382        0.42701820895509
H           -3.84331165131154        3.39725762501131        0.56634530800034
H            0.76077576727069        2.46529245256400       -0.23912721749512
