31
 energy: -53.844802582639 gnorm: 0.000810321056 xtb: 6.6.1 (8d0f1dd)
N            5.77760825729368        0.24960779474411       -0.00548722161393
C            4.62705742277142        0.29620149863564       -0.04631030571126
C            3.22628460499798        0.33674593497778       -0.07797175165009
C            2.64076097563640        1.56108813361016       -0.44558725886148
N            1.41898887375190        1.98383188882082       -0.39715104425628
C            0.27695629564996        1.32126085947434       -0.12560883090824
C           -0.83025577267695        2.14692379169055        0.02482903033975
C           -2.14764655858650        1.68399316502546        0.11985256657342
N           -3.18449048434105        2.56432324321739        0.27520105159253
C           -2.34261741697846        0.30835971310265        0.03769046470969
C           -3.47854918159342       -0.53651880009986        0.05146677947717
N           -4.78998259317524       -0.17252956373871        0.20604349121124
N           -3.14524981571501       -1.81778733066983       -0.16643129539401
C           -1.80786203588648       -1.86175232396095       -0.28137422360733
N           -1.18804810998885       -3.05459196000720       -0.51506906550080
C           -1.21719674208577       -0.57576240600317       -0.12438032962644
C            0.10862690320988       -0.12862778824454       -0.07848607771172
C            1.14825785029296       -1.04425844638527        0.14412635258605
C            2.52443203035475       -0.86278849940355        0.22595270526410
N            3.27913558694618       -1.95048063946541        0.54054150736863
H            3.34171092130929        2.32397790930857       -0.78148952394884
H           -0.64532817447336        3.21099507120343        0.01772543701176
H           -2.96476927285716        3.53620921064000        0.12245016046626
H           -4.08402185698161        2.26955114823460       -0.06895519699455
H           -5.40405160011726       -0.96789109461346        0.30728373926724
H           -4.96711811906602        0.57065735699278        0.86463256909234
H           -1.82836947865593       -3.78942633630028       -0.77772826170432
H           -0.33275859380357       -3.01915206813332       -1.04865736455181
H            0.81934976292201       -2.04703838562167        0.38763272769588
H            2.83628689240930       -2.79839554204277        0.84488861902655
H            4.26866977233877       -1.84358936968747        0.68299439965834
