31
 energy: -58.659459934456 gnorm: 0.000894414861 xtb: 6.6.1 (8d0f1dd)
N           -5.70879237698198       -0.15578320364219       -0.45761606295589
C           -4.56417021859964       -0.08822898596478       -0.35701161914252
C           -3.17608145505766        0.04102934077361       -0.20529134994718
C           -2.36127771728318       -1.02464666258918       -0.55220942433853
C           -0.98367400976559       -1.17233929355590       -0.39534683997834
C           -0.51190497557624       -2.43736260360710       -0.77587091110447
N           -0.13639070644111       -3.48648121053388       -1.07133981644026
C            0.00176249643495       -0.19439687837859       -0.05441208667179
C           -0.33119309393914        1.24060349464619       -0.12516803088284
N           -1.48953629196965        1.74547545527973        0.26333215697507
C           -2.68552520184109        1.25290459447313        0.39835252942252
N           -3.55072954820043        1.98585654048303        1.13024438545059
N            0.56907714801420        2.13878352239066       -0.48833110129345
C            1.86604723008673        1.84419857807323       -0.50764255457963
N            2.70652748845263        2.82439696566555       -0.94075682014482
C            2.30638543179648        0.62410769458345        0.00487011716776
C            3.56202900812548        0.07303618267606        0.34407127937255
N            4.76909001544725        0.68639333545599        0.29860356955468
N            3.45314445245314       -1.21340186291300        0.71634881032414
C            2.16259254858350       -1.55765142537577        0.61849325589005
N            1.78128249985187       -2.76326665302309        1.06676924325002
C            1.34835526642167       -0.44271979332730        0.17844441569583
H           -2.87405280977674       -1.89545606770662       -0.94854492057119
H           -4.53064065715601        1.75907338014239        1.13416677811925
H           -3.24419717294204        2.88329535073764        1.46404842581390
H            2.24857780523702        3.59836094292981       -1.39601102205568
H            3.60396579470700        2.55013199522252       -1.30379917456710
H            4.78935147572161        1.68684821032695        0.41040193978603
H            5.52315526911256        0.17044416482612        0.72443945877744
H            0.93663255376359       -3.19238618332101        0.71849275696115
H            2.54587443187349       -3.38230962251216        1.28947415109304
