28
 energy: -51.485173442691 gnorm: 0.000781649992 xtb: 6.6.1 (8d0f1dd)
N            4.17354688230174       -2.85685170028873       -0.33963629654252
C            3.43240400617564       -1.98393433436368       -0.24991114001262
C            2.55665345111993       -0.88444990831237       -0.13095152692731
C            1.21403381649475       -1.09610364096615       -0.35400636622822
C            0.12014803754630       -0.22472539419880       -0.15763701196833
C            0.20463319452652        1.20323523000005       -0.03006001635218
C           -0.96785498277295        1.93099754381502        0.22695212657622
N           -2.18109560308071        1.42292713106815        0.31680411800743
C           -2.31235062064179        0.12798540981160        0.12883152333758
C           -3.48498344707150       -0.66446104207319        0.12257251211438
C           -4.79320334243073       -0.21410170783706        0.30163899833139
N           -5.87885226056128        0.13849427852974        0.44087073012054
C           -3.08470736810165       -1.98919548520175       -0.09438783384031
C           -1.69639288449365       -2.05828650796014       -0.23275912619614
C           -1.17646755288170       -0.77270775979756       -0.11130974476482
C            1.43129501894528        1.92204704815849       -0.26277202501477
N            1.35352046654904        3.15524431580818       -0.78708951762337
N            2.65071455500347        1.54918598279660        0.06796248096642
C            3.14957191855126        0.35800145326117        0.29061860787099
N            4.36039058770470        0.32085169268253        0.87313628648896
H            0.94281488312743       -2.11220042660998       -0.61316040270742
H           -0.91413155049857        2.99738040201059        0.40959243081563
H           -3.75675914869165       -2.82719017288395       -0.15148457206903
H           -1.14740677916910       -2.96669441947089       -0.40308401592239
H            0.46969799722323        3.55714782561522       -1.04350679876072
H            2.19962387268360        3.68677578555419       -0.90048130860780
H            4.80908713628756        1.18640405925742        1.11776644218540
H            4.85673481765497       -0.54793327070503        0.97538766612275
