29
 energy: -56.011757263471 gnorm: 0.000511338051 xtb: 6.6.1 (8d0f1dd)
N            6.19524000410621        0.33928303821955       -1.01017670449153
C            5.09396980041023        0.11620944240585       -0.77422392877898
C            3.74922666124579       -0.15259993173123       -0.48323921505079
C            3.21075599150633       -1.42036002774280       -0.21197269598045
C            1.83388988522815       -1.26101072212930        0.01109769913691
C            0.85199593811169       -2.14949879660317        0.42437077986125
C           -0.46084270390498       -1.71080239384263        0.55641670931682
C           -1.41415663838335       -2.63823399838251        1.02677759090936
N           -2.11232503043206       -3.41751690130025        1.49923924284667
C           -0.83271100809569       -0.36807774802239        0.25887070875514
C           -2.14173884087357       -0.05499755065660       -0.10567846674381
C           -3.06869167646550       -1.09229278975131       -0.34871094539981
N           -3.89563429935382       -1.83303774765149       -0.64660001543581
C           -2.64969507415745        1.25713384291249       -0.46014354078155
N           -3.75475431020092        1.31645565535114       -1.21962660332339
N           -2.19003609592111        2.41239369490830       -0.04403382846364
C           -1.01725437509231        2.60902478343928        0.55945576428349
N           -0.91430527205363        3.73043115294729        1.28914749560548
N            0.09564179575804        1.91982683233475        0.38461699614527
C            0.24494209860958        0.63864013858736        0.14450455360628
C            1.52992331372388        0.14151012643394       -0.12366546297207
C            2.72682896859022        0.80952957448389       -0.41582442761678
H            3.76123840786994       -2.34167223670680       -0.16875058596107
H            1.08517334027591       -3.18525840591736        0.62626792790604
H           -4.14896155340352        2.22147080338635       -1.40979062645278
H           -4.24786495544754        0.48377034735232       -1.49488907633847
H           -1.68989845284428        4.36719758647113        1.32482316326652
H           -0.01427630753177        4.00167253117487        1.64284387909857
H            2.84100169272066        1.86484519392545       -0.57562867474683
