30
 energy: -55.716288248275 gnorm: 0.000796866457 xtb: 6.6.1 (8d0f1dd)
N           -5.13951583786532        2.32653843881467        0.30809611448032
C           -4.16488823667907        1.72612754392742        0.21005018972687
C           -2.95411010127551        1.01278404032343        0.08326385039147
C           -3.04168135415629       -0.36327803672879        0.24599833802402
C           -2.06295864713214       -1.33586926137787        0.11170846309714
C           -2.53176217096682       -2.67092666885476        0.23008370147520
N           -2.97561645240893       -3.72182834907227        0.34205576729187
C           -0.66120701381977       -1.22056498046347       -0.09751429872069
N           -0.06592518596391       -2.39812543007632       -0.27054413779458
C            1.24781171471135       -2.50282608005864       -0.36784453697362
C            2.07660262556902       -1.41297016529022       -0.19936224210583
C            3.47817091211331       -1.26552805508574       -0.16353821210447
C            3.75671909537853        0.07359908422286        0.07343266182504
C            5.01186091465580        0.66946994950896        0.23161583909098
N            6.01468096662523        1.21053927549659        0.38189029945946
C            2.52942759386973        0.80406593714829        0.18504421063260
N            2.47423138652180        2.13726533699236        0.45463551026412
C            1.47161021091947       -0.10940473449352       -0.01538775146962
C            0.07299736231553        0.03846455858819       -0.08933936431478
C           -0.48265562629111        1.31433639916879       -0.25263931767617
C           -1.79323207902556        1.78029082598659       -0.23189208256420
N           -1.98373073342230        3.10231457373914       -0.46586104372546
H           -4.03639982492092       -0.73752603835061        0.46537556080404
H            1.62637607417915       -3.49951927388735       -0.55156621710205
H            4.20059130447324       -2.05057208295847       -0.28218731873588
H            1.66130527316012        2.48781605432112        0.93684332454725
H            3.35084627454457        2.56383533068170        0.71915084602330
H            0.24401661193406        2.08636492279333       -0.47650609812785
H           -2.91511858857557        3.48041619745357       -0.50307248595411
H           -1.21894476626684        3.68101076373104       -0.76362153976439
