29
 energy: -51.996164041231 gnorm: 0.000572383274 xtb: 6.6.1 (8d0f1dd)
N            5.54014864580631       -1.78379942020395       -0.81301020363568
C            4.62026086384979       -1.13415846933336       -0.59067827282210
C            3.50385594643857       -0.32856041022491       -0.32491710148389
C            3.54533276145374        1.04518829111972       -0.03000039095001
C            2.22565214822091        1.48481272179724        0.11959194735457
C            1.69100998507660        2.74427462895207        0.35710977908721
C            0.32382065169987        2.89785749783291        0.33745723779139
C           -0.57226831451603        1.83090384685488        0.13591055660817
C           -1.91776400285668        2.18389973785760       -0.04318418631400
C           -3.02518481917290        1.41482177415547       -0.32093602083173
C           -3.17122107426393        0.03006119424298       -0.28992729001949
C           -4.46546281335561       -0.44781486902011       -0.59355372512975
N           -5.51685176353615       -0.83569224882103       -0.84555675434824
C           -2.21150212119219       -0.94128913902522        0.09968800244225
N           -2.66778192555507       -2.20033896757601        0.28003851021904
C           -0.82727934112374       -0.69905062471032        0.27459741969667
C           -0.14068444516791       -1.83569277577908        0.76680297995645
N            0.28344083820773       -2.78526256719608        1.25704755180388
C           -0.04502331366362        0.46920098638767        0.08351929668191
C            1.34758271776301        0.34616813424703       -0.04081075394829
C            2.17149306964400       -0.76128990540727       -0.33345114899042
H            4.43196141821535        1.64678049354208        0.04284194338489
H            2.33687541053326        3.59670670768048        0.50770608608724
H           -0.09525150371009        3.88677925454882        0.45200050699923
H           -2.10206294446434        3.25135782771521       -0.02869328581302
H           -3.93259758421667        1.95746075271870       -0.55938983548415
H           -2.04378036565468       -2.94187668251873        0.54984714839080
H           -3.64498787509768       -2.40454322357858        0.15520807521361
H            1.86324990513811       -1.75764656705825       -0.58616559254646
