25
 energy: -43.492042522544 gnorm: 0.000657598455 xtb: 6.6.1 (8d0f1dd)
N            5.08220363722136        0.56203540496187        0.16531408041086
C            4.00177158599930        0.18061435306036        0.10096101976750
C            2.67011914302731       -0.28288999924805        0.01240356443597
C            2.47882598202505       -1.63601766166765       -0.31879110856814
N            1.40382011725820       -2.33978818217613       -0.08374042977530
C            0.19455936650949       -1.96763082149535        0.20742725499168
C           -0.44978432701654       -0.71732888711305        0.00631953624311
C            0.28073324660132        0.55111792022492        0.00049477950573
C            1.65742269616465        0.66900548139098        0.17787246309068
C           -0.50167960201980        1.75423126076029       -0.07063088244597
N            0.10235350775347        2.99177025487654       -0.09462133090578
N           -1.82044449047503        1.79122332014338       -0.08514147368636
C           -2.49571690392393        0.65531129371386       -0.03954852566443
C           -3.87011245333503        0.43565177407202        0.01041719254487
C           -4.07551153776336       -0.95034382699204        0.01468975031378
C           -2.85848935280249       -1.62116861982142       -0.01259099172497
C           -1.83279845018741       -0.65832544930409       -0.02828027894441
H            3.32075455518752       -2.20089737998858       -0.70274617015550
H           -0.43741646205948       -2.77464185716257        0.56433921617820
H            2.02007733921783        1.66635532921223        0.39880558723597
H            0.96106288141670        3.10250179977849       -0.60808307318469
H           -0.56554724787667        3.73534381549949       -0.23517687635444
H           -4.62838079622160        1.19331311037907        0.04171360771610
H           -5.03970907903980       -1.42661870882954        0.03908910250816
H           -2.73334375926079       -2.68749322687480       -0.05092825153236
