26
 energy: -48.019772506933 gnorm: 0.000441318025 xtb: 6.6.1 (8d0f1dd)
N            4.32937235008908       -1.64815342211880       -0.35941955033709
C            3.44849716953063       -0.92152283743475       -0.25168956735120
C            2.41005954977641        0.03486503539467       -0.14807429751824
C            2.73840418727198        1.32944611095945       -0.53701498386208
N            2.10131909317734        2.45564899232841       -0.30061779414323
C            0.88978850334155        2.58380604431479        0.18208723727932
C           -0.16273359593578        1.66829304117668        0.23966513767825
C           -1.37836177075764        2.22341983139519        0.67377188978335
N           -2.36106836127161        2.69651163041569        1.04233353578153
C           -0.11996885585915        0.24790722761824        0.05045511035216
C            1.12968347457859       -0.49717444010682        0.20712493897977
N            1.15352909808635       -1.77077131561274        0.55455425548392
C            0.03361827884006       -2.48190647935497        0.62905974427013
C           -1.16751298167936       -1.96304639462020        0.21682044543423
C           -2.45947199207401       -2.52852412436821        0.05817373061517
C           -3.30856430837324       -1.55031107397343       -0.38859842764351
C           -2.60953361450804       -0.31910069881352       -0.50711005750614
N           -3.15537874523655        0.76980188484203       -1.06867112735011
C           -1.25268391849615       -0.54795121143341       -0.10401321475220
H            3.70493864055605        1.47019520554234       -1.01182605033684
H            0.65952825155495        3.59754090339824        0.50045144815990
H            0.14719148199872       -3.50062221747315        0.97319914435805
H           -2.70824690081739       -3.55488431185693        0.25197411965948
H           -4.34828228500861       -1.67061683714333       -0.63189707572666
H           -2.71278556750046        1.67147233725421       -1.01595845338835
H           -4.14752197258338        0.76009343307018       -1.24083171391924
