29
 energy: -51.184461450195 gnorm: 0.000803699784 xtb: 6.6.1 (8d0f1dd)
N            2.01868952533607        4.38047615622614        0.43849660508169
C            1.71520899433958        3.28364008760250        0.30124810835981
C            1.36174666703501        1.92038330800057        0.13763198931191
C            2.42026757476868        1.01175995898646        0.13531309510338
C            2.36167269202047       -0.34775186002315       -0.12003244802954
C            3.62848312290068       -0.97282202492937       -0.21521056037289
N            4.65381903484008       -1.48615492559826       -0.28107158800756
C            1.23924708312116       -1.21571764915030       -0.28860134686795
N            1.53210704080458       -2.43083722455413       -0.78563917057279
C           -0.12602482661057       -0.92833197889311        0.02408875416402
C           -1.02064249321905       -1.99654565713641        0.29101785402850
N           -0.53750558796616       -3.29316532154069        0.55961839993129
C           -2.40526842519327       -1.83057201820691        0.28144091105042
C           -2.96023308724673       -0.59953611717382        0.01105390582027
C           -4.25549821197999       -0.06708640318705       -0.08247100056154
C           -4.07519105404930        1.29634618323482       -0.26176613649891
N           -2.77974306348528        1.66959768502678       -0.28022153766377
C           -2.07313232281748        0.54586273351558       -0.13346334329614
C           -0.67183412798727        0.42087444427655       -0.05878621705524
C            0.01220294941741        1.63661174433233       -0.03597632770498
H            3.41270718159095        1.42447247411517        0.27834001273927
H            2.48476304297653       -2.67241336972987       -1.00517836462808
H            0.80274585922323       -3.12189731469341       -0.88135300453932
H            0.24708860852161       -3.32095897918294        1.19856432232493
H           -1.27564319523566       -3.91014384661551        0.87299476298223
H           -3.03507090383395       -2.68687824563748        0.48753410758008
H           -5.18568690587484       -0.59703971564330       -0.02180825753043
H           -4.83950240776383        2.04423488984902       -0.37857957700656
H           -0.65446690043227        2.49012085532969       -0.09742455494155
