32
 energy: -57.579559472403 gnorm: 0.000615410254 xtb: 6.6.1 (8d0f1dd)
N           -2.68544470471655       -3.38405674878975        0.12593592886082
C           -2.32622180069138       -2.29052284972727        0.08933956327386
C           -1.98423956429492       -0.92628311307506        0.04680981691021
C           -3.06374645329427       -0.01488734785203        0.22326294201608
N           -4.24346524288706       -0.52988993393348        0.64536874122371
N           -3.11221720176559        1.27899719747011       -0.01906170701908
C           -2.09466089636400        2.08591531097693       -0.31838762818442
N           -2.51269313504698        3.35262486614344       -0.62263824168336
C           -0.72141628693768        1.86662327557397       -0.24662946895980
C           -0.01324579658157        0.67243000462669       -0.06415468499406
C           -0.60567895821668       -0.66130178771642       -0.11378939052440
N            0.12776671957217       -1.75813000301124       -0.29191947193199
C            1.45776114486783       -1.72978668123470       -0.30740957457515
N            2.07670380985582       -2.92223935159743       -0.53737391252859
C            2.14099925107600       -0.54947516213864       -0.02352370333894
C            3.48603329895448       -0.16730351235544        0.17010935905038
N            4.59097052023510       -0.97025920334769        0.13463044919873
N            3.59755368405572        1.15467541570144        0.38658839163124
C            2.35913437795141        1.66907508465878        0.33770011254999
N            2.16824326411209        3.00596332830176        0.53219954364727
C            1.37870013221809        0.66905121094465        0.08035615967483
H           -5.04114537885775        0.08023286089375        0.65879795529224
H           -4.36757641915079       -1.52469574513388        0.71853462856292
H           -1.88029623846324        3.98173763912692       -1.08445241791543
H           -3.49663301984768        3.46496087993282       -0.79605305772428
H           -0.11285334056723        2.74362102293969       -0.42431245111435
H            1.45994264108145       -3.65634246880240       -0.84938893791208
H            3.00018754136356       -2.90323635932373       -0.93582831089811
H            4.46532348398474       -1.91462105555982        0.46485548115081
H            5.42947375461147       -0.51431703561518        0.46238586777381
H            1.30398361227434        3.27705164178324        0.97573329122922
H            2.99227736606920        3.48065670793944        0.87078262695831
