31
 energy: -60.241161114977 gnorm: 0.000871148869 xtb: 6.6.1 (8d0f1dd)
N           -5.69511794393424       -2.03086337417429       -0.52770688100736
C           -4.67207118419229       -1.53843484578259       -0.36660095892594
C           -3.40664770798349       -0.93680436620709       -0.16820917834308
C           -3.34442128808858        0.44674602314833       -0.32576876939510
C           -2.25906085518259        1.28263703070089       -0.13461312799115
C           -2.53137692793376        2.67019365604746       -0.26106489842087
N           -2.79879540495509        3.77994780263652       -0.36944437096310
C           -0.88184194657072        0.99466657595180        0.11020013870754
N           -0.16291961195859        2.09223032497996        0.27875141178177
C            1.16906080810323        2.08139588001805        0.32307161754989
N            1.75586531685232        3.26791344207607        0.58522694940168
C            1.86470058829433        0.90173326175185        0.03590492269837
C            3.21556737486862        0.59706206666231       -0.18447191562033
N            4.27090853964267        1.44458251700439       -0.24575722499964
C            3.30502030052228       -0.82683683649006       -0.33316977625752
C            4.50848383414404       -1.48804339714944       -0.60218897902851
N            5.52659986919582       -1.96610553811039       -0.83549811659586
C            2.04299733405350       -1.38339872509112       -0.21192763750206
C            1.11019410760934       -0.33703766311025        0.00705037970914
C           -0.27853838440775       -0.32889282265319        0.14055429619013
C           -1.01868518744177       -1.53645260740065        0.35993942876999
C           -0.30480787301352       -2.66305451113719        0.84131257356342
N            0.18307520044687       -3.59838285415733        1.29298621516236
C           -2.36796571554972       -1.79573972637782        0.21893433548404
H           -4.27589629429682        0.93697130500756       -0.58834636113099
H            2.70242413337980        3.29667488521949        0.92253279411353
H            1.13298878492896        4.01415830843093        0.85250859997534
H            5.14944592095998        1.05405784479089       -0.55139591284027
H            4.10549275363329        2.40855957416935       -0.48425444307113
H            1.82510174505232       -2.42802254254735       -0.31557304799329
H           -2.66716188517771       -2.82051594550568        0.41563694717961
