35
 energy: -62.335648244493 gnorm: 0.000632531392 xtb: 6.6.1 (8d0f1dd)
N            5.50345452880369        2.05693497098129        0.21322871627126
C            4.47530955718698        1.53920055617439        0.14648618672716
C            3.22443331467600        0.91157458867782        0.05460979809316
C            3.20307095321706       -0.48801316479666        0.25342338508741
N            4.38179075621222       -1.07834756928751        0.57741955523686
C            2.10716880195435       -1.34256948065130        0.11421678508154
C            0.74221083423060       -1.12006951567290       -0.05591693580714
C           -0.08143001130408       -2.28021749129949       -0.18049594836129
C            0.50294016847223       -3.55689606435684       -0.25308704239241
N            0.94273252917876       -4.61800476975415       -0.31646721665346
C           -1.47238092719127       -2.22141246073820       -0.24093642510776
C           -2.09126227887186       -1.00031845989291       -0.11801256636901
C           -3.46500481194390       -0.64164178291824       -0.06716775067851
N           -4.52054935104785       -1.48111475826891       -0.13290670545194
C           -3.52945914470438        0.75056822182219        0.14093324605147
C           -4.69217652269786        1.49962876019582        0.29761548901786
N           -5.64848019728908        2.12693470883794        0.43245536833985
C           -2.21002549446718        1.27129927103915        0.20479961558458
N           -1.93872278793109        2.58951954489578        0.43736238875178
C           -1.30028970943661        0.20408912238600        0.00578034149526
C            0.10330503303135        0.18023428821968       -0.09091570468402
C            0.78098791600515        1.38899502780529       -0.31403334918691
C            2.12439191274960        1.73887516628172       -0.29202035789687
N            2.41318417593253        3.04569153283103       -0.55531628781029
H            5.22969937764122       -0.53947120902484        0.61082815057653
H            4.44096223280647       -2.07873294907099        0.63953085134129
H            2.37526963136317       -2.39109579921594        0.19430642348393
H           -2.03271021610481       -3.13982801279607       -0.34969045014878
H           -4.37947008081326       -2.43700468501014       -0.40560272134057
H           -5.44873917776753       -1.09936883680328       -0.18882291176700
H           -1.07414858669893        2.79948337935255        0.91292915138051
H           -2.73167517398262        3.14020641969623        0.73501280238119
H            0.13269009687200        2.20904268073899       -0.59448431919377
H            1.69990339894088        3.64234043248254       -0.93486222056996
H            3.37133448677489        3.33342248623970       -0.65619600318167
