31
 energy: -53.844782653302 gnorm: 0.000736139065 xtb: 6.6.1 (8d0f1dd)
N            0.84135162808944       -3.58752944829315       -0.65381635303000
C            0.99889280651566       -2.46678290812294       -0.43572018188547
C            1.31942139763376       -1.11555881600576       -0.21372016466968
C            2.70950447963495       -0.82892710783789       -0.34469794934306
N            3.51279933903749       -1.83417757080792       -0.79338531718131
C            3.33240842725004        0.36415387541484        0.00174604628694
C            2.70868871560427        1.54923800944119        0.41240938819478
N            3.46793363024324        2.48921532873496        1.04329479050152
N            1.46549618160477        1.92996979465478        0.19949736373020
C            0.38889871505605        1.24342713504146       -0.11307445012546
N           -0.63700713874534        1.99411858496590       -0.50062695980041
C           -1.87749190935353        1.52393589816247       -0.48966079006920
N           -2.84772909507617        2.36482489855387       -0.94877805563322
C           -2.16214377000728        0.26652445588827        0.05383807120297
C           -3.35047573921763       -0.42016958483474        0.35823243301937
N           -4.62904471577156        0.08242924583141        0.27540340455930
C           -2.99980964429895       -1.73499115922138        0.73422163023874
C           -1.63196973350415       -1.88069242361270        0.66249898785537
C           -1.06255602965762       -0.64666057791495        0.25256041826625
C            0.24703878949326       -0.22432032012601        0.01685053531685
H            3.13801221352810       -2.76091265031953       -0.90268912788804
H            4.50926737733328       -1.72845067220476       -0.73531588155124
H            4.41570524737078        0.36280233157225       -0.00931049042787
H            4.46969138111553        2.42306934452373        1.02005204489594
H            3.05125613992850        3.39758861650511        1.15402840645249
H           -2.50561555249544        3.17085779684685       -1.44793599743113
H           -3.70028985525604        1.94827558643988       -1.28388550125614
H           -5.33237827098618       -0.48162320595968        0.72899650141366
H           -4.72088827172708        1.07074657357507        0.45802442401441
H           -3.70074337739165       -2.49211827834858        1.03682316301525
H           -1.08917951855017       -2.76934805424234        0.92034885342906
