31
 energy: -54.644022000141 gnorm: 0.000949969511 xtb: 6.6.1 (8d0f1dd)
N           -4.26177903406824        2.98724494524973       -0.00334493914424
C           -3.60066949168801        2.04596590988488        0.02482523046845
C           -2.83220229180304        0.86830999390548        0.05292003573677
C           -1.44793160796671        1.01163836190236        0.09814449952067
C           -0.41712149933445        0.07539802408073        0.04936812095509
C           -0.61158832994437       -1.37868392434396        0.06334668349431
C           -1.84446216495156       -1.97550797286489        0.35532617094674
N           -3.08734261891118       -1.56844669328745        0.27671225592888
C           -3.55453731880759       -0.36110489641426        0.00067989703429
N           -4.87016847820106       -0.32418271890992       -0.28818206996341
C            0.51513710878478       -2.23507658559601       -0.07031505154646
N            0.35724982014644       -3.60526634821558       -0.12183398766700
C            1.81157705335080       -1.72479631927735       -0.10819962407701
C            2.02755641577799       -0.36689779076678       -0.02703252743597
C            3.21237124606266        0.39176806749813       -0.02915699992252
C            4.51556839017382       -0.08522663503377       -0.07849456028607
N            5.60647206410873       -0.45543328118670       -0.11130341707173
C            2.83667297617753        1.76119967812707        0.04347032467886
N            3.70669182585029        2.79963886175292        0.01979046268618
C            1.43767415202263        1.85001014592275        0.08958544440708
C            0.90538127696012        0.56075279283812        0.04833639394101
H           -1.11894263430779        2.04309254080886        0.12708741188936
H           -1.79867764061104       -3.00958484549727        0.68916063544201
H           -5.39041544118184       -1.18331178366613       -0.24329085916144
H           -5.34918881961812        0.55265201630467       -0.40308772282770
H            1.19171595762232       -4.12102208340991       -0.35137128247839
H           -0.48338618617672       -3.97295781755134       -0.53325747436731
H            2.64958380987995       -2.40304259328008       -0.19558322497769
H            3.37811266165106        3.72013354028838        0.25225580666747
H            4.68673423166685        2.60561443657303        0.13531949930571
H            0.90178799443795        2.77934616724327        0.14591038653955
