28
 energy: -51.479338514799 gnorm: 0.000701536874 xtb: 6.6.1 (8d0f1dd)
N           -1.80477082687473        4.16187322149020        0.50743787534627
C           -1.41152681955314        3.09535432568731        0.34738055738379
C           -0.84804319551441        1.81521547316354        0.17558375587578
C            0.55538161384450        1.67746026120641        0.12397402247433
N            1.33906205026762        2.83093029155822        0.15526125900357
C            1.14534336625888        0.41221286292927       -0.01659243759829
C            2.56249179977639        0.30622647323098       -0.31515255844371
N            3.11474889165984        1.20724665269809       -1.13846773333677
N            3.38825458227571       -0.55761616085108        0.22486466710854
C            3.19258669048679       -1.77056201349992        0.65934997829181
C            2.09095442193368       -2.57662084603004        0.36798542344270
C            0.85028164452368       -2.11133331248523       -0.01000553096733
C            0.35047589815270       -0.79030137424145       -0.03665204928862
C           -1.04770470732533       -0.62269175122481       -0.08171881179019
C           -2.15141297261327       -1.49843138771755       -0.14874022459947
C           -2.18108139428931       -2.88447178339309       -0.26294036313069
N           -2.22091983016571       -4.03194244917531       -0.35642433849312
C           -3.29504768340581       -0.66241266002393       -0.08473631863633
N           -2.99788846779145        0.62039635514487        0.02581132688908
C           -1.65188639344564        0.68936918250485        0.03676418972495
H            2.20675473136320        2.75391407784771        0.66628206593905
H            0.81545186743422        3.65870150246471        0.40887135238327
H            4.09602895961228        1.13662506351924       -1.34982239606695
H            2.56953521457643        1.97442848541847       -1.49604466790373
H            4.02918748480351       -2.18999539257483        1.20680586934094
H            2.20434080241401       -3.64228090029490        0.50655688030401
H            0.09689803446443       -2.87171970365318       -0.17213145868623
H           -4.31873001926910       -0.98846842859835       -0.12338222866719
