27
 energy: -50.964413341670 gnorm: 0.000514571191 xtb: 6.6.1 (8d0f1dd)
N           -3.46871461599960        3.70065304962841       -0.00995977918700
C           -2.95373581476154        2.67504049397788        0.00567970238648
C           -2.33950731262972        1.40444483324209        0.01673469534133
C           -3.15477859104730        0.29727892229133        0.31974610640995
N           -2.90399424262704       -0.95394668939962        0.09853758973219
C           -1.78713559268296       -1.58094548455292       -0.25140240550520
N           -1.98816624035749       -2.75351156584848       -0.86753417653829
C           -0.45256797971963       -1.16822380396555        0.06100364168199
C            0.57773998789828       -2.10743715289111        0.27366629468775
N            0.29801437867311       -3.46790200669951        0.40558903358172
N            1.87721525711272       -1.82900391895460        0.33417497709965
C            2.24048418562961       -0.57519149584130        0.17105049012107
N            3.46957789710412       -0.05413698704964        0.16173230414169
C            3.24878210420710        1.25875365799014       -0.00485558443503
N            4.24745020026136        2.14409705385576       -0.08982546290953
N            1.94947235765110        1.65699499999861       -0.11753929201413
C            1.27503692885899        0.51610649835335       -0.01645800281520
C           -0.10270386804118        0.24444101632680       -0.03394159699574
C           -0.95742617288879        1.33713682725317       -0.16471029458232
H           -4.14467302935946        0.49076315668863        0.72344970100077
H           -1.20131285001474       -3.33376298895290       -1.11294763521630
H           -2.92861188622043       -3.02588610472149       -1.09768265620526
H           -0.48368573323820       -3.69416063533652        1.00531691292128
H            1.14150841574523       -3.96327296799031        0.66697391713680
H            5.18687277199460        1.82721622562099        0.06363806556606
H            4.02860195405917        3.12259091799948       -0.12739687989846
H           -0.43984949560710        2.27755795507733       -0.31687596020661
