27
 energy: -46.953497096596 gnorm: 0.000582715918 xtb: 6.6.1 (8d0f1dd)
N            2.59049614579894        3.56735015083345       -0.05049256814495
C            2.27168331660749        2.46404285929949       -0.03625234578283
C            1.97493591033692        1.08217572265023       -0.02631610713823
C            3.08016273347654        0.23903046789542       -0.25078984552491
C            3.13830453164154       -1.12175740304222       -0.21391941498499
C            2.05368033474653       -2.00696569661038        0.08574157566265
N            2.38068040285402       -3.30629836482266        0.29636685958103
N            0.77152944045440       -1.77026533878679        0.12085951781197
C            0.08998136793371       -0.61915754774945        0.04457514839966
C            0.61194830809394        0.74766556840809        0.12854791779205
N           -0.19048338823373        1.80877200027704        0.28575861301863
C           -1.50278543566386        1.68474804862687        0.25679097337041
C           -2.12054384742641        0.47369071520571        0.02164314961543
C           -3.47175065270687        0.04835928314522       -0.08718852735156
N           -4.56685471381714        0.84023878343760       -0.00856676633855
C           -3.46686178820119       -1.35510825838650       -0.23372128832983
C           -2.16553078170297       -1.81368103789981       -0.21866294096921
C           -1.29509945533465       -0.70723963228344       -0.06773423312654
H            4.00956660146924        0.76108799795539       -0.45017862054298
H            4.09619752339605       -1.59305777572963       -0.38928590580807
H            1.64326769319305       -3.94163018524091        0.54405257490550
H            3.33655681738745       -3.60333215139475        0.35733730498300
H           -2.05232977116459        2.60550086749376        0.41766724331524
H           -5.46699824225556        0.45457950037312       -0.23291609038219
H           -4.45572028990335        1.83736700993377       -0.05328912856875
H           -4.35003771948280       -1.95898727168203       -0.34105620518029
H           -1.84789254399660       -2.83496891230676       -0.30844253808175
