30
 energy: -54.132005936589 gnorm: 0.000826540206 xtb: 6.6.1 (8d0f1dd)
N            3.04437924560362        3.24740841997559        0.05163459241018
C            2.54610615029858        2.20892935673306        0.04757950050997
C            2.04810690066461        0.89233246424573        0.03307145039705
C            3.02376750127891       -0.13909196093891       -0.04998601197590
N            4.32113339184543        0.25845955054598       -0.09829437582666
C            2.78108506187343       -1.50562728101203       -0.05115217138560
C            1.55218849014412       -2.18269422880722        0.02594169546620
N            1.62200185701786       -3.55170467145240        0.02083095478778
N            0.31349969890171       -1.73620622914511        0.04837058287243
C           -0.11404531544334       -0.45705785286263        0.03584333063171
C            0.63877146918678        0.78805702662797        0.07371258075624
N            0.02996249512336        1.98526715260622        0.13483816618183
C           -1.28241416101075        2.11656376409241        0.12498886553862
C           -2.11137086011664        1.01872308063353        0.04068624227720
C           -3.51349040967464        0.73858945451053       -0.01858739895926
N           -4.51026181227614        1.63821839237805       -0.04334196275961
N           -3.76402493557996       -0.57985065576328       -0.08727544147377
C           -2.57125228932430       -1.20092175854722       -0.07166634435026
N           -2.38835970534676       -2.52046820407973       -0.11074984674587
C           -1.48948441207637       -0.27165895924600        0.00562031356343
H            5.05067026505589       -0.41586164509424       -0.23982472050549
H            4.54274295836826        1.23754855267790       -0.15695035689565
H            3.65795745581048       -2.14013249585247       -0.10313101413031
H            0.78137762803277       -4.05036189781974        0.25691767167639
H            2.49590843324325       -3.99810544610664        0.23392545702625
H           -1.64430588321797        3.13646901374274        0.18038217576409
H           -5.45634249360743        1.30323952925672        0.00173569589294
H           -4.31838464146862        2.60760409996653        0.13121821278895
H           -1.41414710815714       -2.80163588307001       -0.13617264581145
H           -3.15982392584861       -3.15052151139518       -0.23507365542122
