26
 energy: -42.435503409462 gnorm: 0.000824037763 xtb: 6.6.1 (8d0f1dd)
N           -4.46668712192279        0.45589596121018       -0.04148212056026
C           -3.15891044256958        0.06866579235762       -0.01296825141847
C           -2.91049513090449       -1.31499206465072       -0.02835914345954
C           -1.67842638613316       -1.94518457458268       -0.04466880395974
N           -0.44766027676263       -1.49989372683851       -0.03967318358898
C           -0.01919813864629       -0.21724912962579       -0.02466608335828
C           -0.79912480846313        1.01585432571750       -0.01812716178369
C           -0.10559192706208        2.24663202326851       -0.01150009167677
C            1.26728046457768        2.36964395713840       -0.00660016952019
C            2.03191597576125        1.21324056497290       -0.00697693395518
C            3.40221366194628        0.89534110716462       -0.00253815026354
N            3.62192798533595       -0.42279449462165       -0.00856187914563
C            2.41242096863349       -1.01899845898637       -0.01756290942144
N            2.21357621489026       -2.33855413858963       -0.02488369007228
C            1.35706929478345       -0.05510912544252       -0.01639918198717
C           -2.19974274811378        1.08081967362335       -0.01065824146888
H           -5.18725868975556       -0.22835185486230        0.10393531063321
H           -4.70294554192384        1.42004298126698        0.11201342855887
H           -3.78140585577374       -1.95784429092085       -0.03078337146112
H           -1.71633524065448       -3.03437119457760       -0.05877883807615
H           -0.70382268828042        3.14810485346519       -0.01014211408322
H            1.72780790364872        3.34744072775686       -0.00211182009709
H            4.23329386411104        1.57760896657403        0.00478959434110
H            2.98796374040171       -2.97697759316113       -0.03348113189051
H            1.24167683898011       -2.62372229881803       -0.03946060870283
H           -2.60746339340388        2.08668032506168       -0.00100231738222
