30
 energy: -50.918106945235 gnorm: 0.000685879753 xtb: 6.6.1 (8d0f1dd)
N           -1.95575399905381        4.03445794789019        0.27910068791052
C           -1.61896899832904        2.93932807509739        0.19451821464638
C           -1.22451053493324        1.58594752582500        0.08696067405703
C            0.13487869990723        1.38292792741446       -0.11987197846083
C            0.92121582643048        0.23143709836248       -0.08577691621977
C            0.43496494393569       -1.12209498495602        0.05709281772671
C            1.34289683091012       -2.13414086513355        0.38444634046528
C            2.71415562938936       -1.92859116669568        0.48321686089438
C            3.23641743185405       -0.69519507015603        0.17717260092820
C            4.55105706725262       -0.19724656974429        0.11187019946140
C            4.47344642619626        1.14028279223116       -0.21985923707458
C            3.12486326598623        1.52362671659646       -0.35821538737580
C            2.32746950705607        0.41265475549103       -0.12681624018015
C           -0.92117508984470       -1.51628409448534       -0.21780799673877
N           -1.10095627274936       -2.80070096373076       -0.60464899835506
C           -2.09558229060408       -0.74937246455831       -0.08515492217408
C           -3.30556790823154       -1.46077317841950       -0.23424520354811
N           -4.29627994952615       -2.03253127113210       -0.36018282510667
C           -2.26104643318671        0.63064977978386        0.18206195828998
N           -3.50522968474932        1.07540003980858        0.47676119008904
H            0.69843228643606        2.30215117315097       -0.21914936785535
H            0.97007127968129       -3.11987653274961        0.62525550769747
H            3.35652878001862       -2.74831507600389        0.77290329021508
H            5.44505570374638       -0.76583792748380        0.28757893873391
H            5.31099964974283        1.80137711055090       -0.35884305072370
H            2.80474818728634        2.51583050031992       -0.62000850497636
H           -0.31045957353100       -3.37971173023391       -0.82194056076355
H           -2.02537300973566       -3.14579910565601       -0.80154353455063
H           -4.29024050518067        0.44702764336789        0.45142968183408
H           -3.67468160117433        2.06412770354794        0.55484805945485
