29
 energy: -50.424034009444 gnorm: 0.000636024859 xtb: 6.6.1 (8d0f1dd)
N           -3.51373011955784        2.83038743640314        0.04898687558398
C           -2.90167358595418        1.85439996304498        0.03063905322127
C           -2.18204494096618        0.64539225399103        0.01112742616474
C           -2.98799446232779       -0.52064795753987       -0.03730638216838
N           -4.32789457053454       -0.36590943476751       -0.11242717137191
N           -2.62370943196483       -1.79690844418038       -0.01231957884540
C           -1.40698748899132       -2.27874761549520        0.02215981169471
C           -0.12421667427361       -1.71501324341470        0.01163689773073
C            0.93128898543781       -2.67067448411369        0.01538906627799
C            2.25379647656451       -2.34175921943040        0.00225784309747
C            2.60523655770551       -0.98743049419148       -0.01270107046792
C            3.80257327550050       -0.29273787865241       -0.02814069793233
C            3.44745767471242        1.07257107560331       -0.03491634604247
N            4.30254420863630        2.13184301391373        0.00807165802342
N            2.12018890663984        1.25674688296490       -0.02368274915206
C            1.55581504684346        0.01841630316587       -0.00841814747067
C            0.19915999252492       -0.30848841525496        0.00388005986047
C           -0.77041066133692        0.76617461265279        0.02632531989114
N           -0.27159520515872        1.99819788548682        0.05847259790876
H           -4.88927474690341       -1.19903291054092       -0.11386553630138
H           -4.75874700227695        0.54179224698330       -0.09676119263473
H           -1.42457376269058       -3.36651079257730        0.05415098816454
H            0.64913375931870       -3.71405689788281        0.02666238289221
H            3.01889844992218       -3.10450474924270        0.00493778813608
H            4.79904828216976       -0.68836034223567       -0.03334862045522
H            5.25166841180159        1.96921979518866       -0.28170261637635
H            3.91345419375700        3.03226792472905       -0.21677248443229
H            0.77069568655234        2.07629265059973        0.04678879309512
H           -0.89004485155010        2.79308566559264        0.07576522760856
