29
 energy: -51.196888579755 gnorm: 0.000827852814 xtb: 6.6.1 (8d0f1dd)
N            0.97811617107615        3.51121923879298       -0.96528995940586
C            0.54229662631491        2.52110605587323       -0.57782059324089
C           -0.15668644729980        1.34612242779101       -0.23092590193274
C           -1.54302067259706        1.48147242080957       -0.14217170274175
C           -2.31128968313348        0.36177279689981        0.06982600187698
C           -3.71285223700306        0.17392243395387        0.22075495515151
N           -4.65012415600795        1.14463579847009        0.23381489493162
C           -3.94623354499962       -1.21402592685705        0.31543957045425
C           -2.74512152074145       -1.88467909424439        0.22301252540855
C           -1.69323502303824       -0.94237507298900        0.07431332436831
C           -0.31506160553307       -1.10921167333464       -0.07503605775980
C            0.19557198270655       -2.41505157622371       -0.27053306519820
C            1.48498148500646       -2.84601946143582       -0.45952182905866
N            2.65063760187464       -2.23422439170484       -0.32355553840285
C            2.84442471345182       -0.97428742705244        0.02026088484335
N            4.13981423979215       -0.69245251740775        0.26965968648867
C            1.90005125692985        0.10513118953032        0.10202110466233
C            2.49099792350638        1.31254024121605        0.52564419348968
N            3.07092358771212        2.18874250754257        0.99751859759087
C            0.50212147961471        0.09370393441020       -0.09235094866035
H           -1.97566424547324        2.46734872768466       -0.24599801584234
H           -5.60493991577930        0.91463075787377        0.44317990060324
H           -4.37391616511091        2.10963108465349        0.26135655106729
H           -4.91344416094441       -1.66522065408552        0.44194842803370
H           -2.63770309661166       -2.95235191157368        0.27433929634471
H           -0.56005606616715       -3.18348270258207       -0.35325951196224
H            1.61194940911824       -3.89145759273195       -0.72805729686165
H            4.44942324075664        0.23393054226294        0.50690043341164
H            4.80040933108007       -1.44359713774086        0.17353671804086
