26
 energy: -46.437219988192 gnorm: 0.000491989912 xtb: 6.6.1 (8d0f1dd)
N           -3.71190532251167       -1.63322976490694       -1.05109785229775
C           -2.96645788745245       -0.75561267077682       -0.33338333579966
C           -3.61387967606093        0.31270977030311        0.33568498399292
C           -2.92991078331373        1.40338704495616        0.82321973920325
N           -1.71627333459459        1.81982733975634        0.52519038843857
C           -0.68915830197870        1.17095668175219        0.03523311954688
N            0.36440638658300        1.86866217178997       -0.36460283606125
C            1.57064995197719        1.30617391271107       -0.37452622955154
N            2.59187050321284        2.07524063483965       -0.82574392385205
C            1.76989631297603        0.01385065433680        0.13461845889128
C            2.87441519281492       -0.82463159236575        0.35732128847264
N            4.20518445984709       -0.50948123297091        0.26524967630128
N            2.48417601800310       -2.08876035819516        0.64872163247194
C            1.15730597896688       -2.10889725487870        0.61614575037734
C            0.61886301046193       -0.84118127210487        0.32264218252741
C           -0.65361098333288       -0.32579934535084        0.08397154890527
N           -1.69182423081469       -1.06945782513219       -0.21747443205788
H           -4.71395656115521       -1.60245331307215       -0.99859244913789
H           -3.26833285483948       -2.47932477037813       -1.36370324090255
H           -4.68306253440387        0.24784437076267        0.48474757492728
H           -3.46597568847049        2.09787430006365        1.46396175807832
H            2.32813950601381        2.92585262497705       -1.29584878343767
H            3.44813704649534        1.62429729158567       -1.09974741240973
H            4.46254240991462        0.41898417518689        0.56450030071248
H            4.80535826047829       -1.24127073606445        0.61677452648637
H            0.61766404278257       -3.01474782082351        0.82016939707370
