29
 energy: -56.785687764622 gnorm: 0.000653283340 xtb: 6.6.1 (8d0f1dd)
N            5.78459084969006        0.70121314830206       -0.98750968722726
C            4.66376774068296        0.66325296618218       -0.74552231043019
C            3.29201585952401        0.64124328354081       -0.45037530490903
C            2.51550684243852        1.77886816658587       -0.15182894950280
C            1.19973271138479        1.35622030489464        0.03125601873344
C            0.03497951122152        2.06109900338252        0.36376197596781
N            0.04054608261688        3.36790240080394        0.64528472216608
C           -1.19343446347504        1.33486572547366        0.33365509901686
C           -2.35498571449609        2.07476852043902        0.63907022159288
N           -3.20938534408795        2.75386633598698        0.99687600517235
C           -1.25754323789613       -0.03482680232940        0.06135692559634
C           -2.49209434896731       -0.59275798430019       -0.37926860051285
C           -3.46053851547331        0.29089453026409       -0.91788477903240
N           -4.24893981475176        0.92573845738298       -1.45743601561088
C           -2.83151721839730       -1.94059859525002       -0.50023270202493
N           -2.27170311028625       -2.97504983185197        0.07974330147467
C           -1.07721056422092       -3.05116111378744        0.59404858845047
C            0.01503834248562       -2.18148953725920        0.41189018481658
C            1.24422745303096       -2.76527148731915        0.80445308053810
N            2.17743224503471       -3.31401766417707        1.18378657741763
C           -0.01481378806301       -0.81357732103736        0.06180398948103
C            1.16765731649402       -0.08350148142329       -0.11996000839398
C            2.48047402669290       -0.49512972193491       -0.42053008055457
H            2.89471041001673        2.78244299207420       -0.09266237012069
H            0.90058317921611        3.88697498742756        0.62036106575562
H           -0.82087204129310        3.84993214397318        0.84846658338681
H           -3.74265357892134       -2.17577167683291       -1.04067598966894
H           -0.88559372355302       -3.97000285608269        1.13966433547803
H            2.81125531235487       -1.49091299812377       -0.64232869635877
