30
 energy: -54.133587084974 gnorm: 0.000838461345 xtb: 6.6.1 (8d0f1dd)
N            2.90466668110171        3.10329808005543        0.00375702782942
C            2.41120974801389        2.06326369846372       -0.00198106777529
C            1.90137220962713        0.74903961477487       -0.00179230122600
C            2.86362491382499       -0.29652758027657        0.05076535363055
N            4.16664661987994        0.08259297191587        0.09524627867026
C            2.59591289062984       -1.65713792010937        0.03158082475063
C            1.35336482905024       -2.30964186763017       -0.03474843854243
N            1.39192949658898       -3.67872280601848       -0.04374336843542
N            0.12310711077586       -1.83697201434775       -0.03813179273401
C           -0.29049350985827       -0.56201409624870       -0.01172058257295
C            0.49363621029155        0.67632885494830       -0.03290545428705
N           -0.08592460557309        1.87949877168321       -0.07081210543906
C           -1.40474440855345        2.05249740906060       -0.05562341851491
N           -1.83121838471369        3.32854917066804       -0.09912316437671
C           -2.26908141116879        0.94896829008474        0.01479410816878
C           -3.64591824119635        0.70897758044254        0.08392537154304
N           -3.93568420387928       -0.59946694074640        0.13823437055030
C           -2.76596349728173       -1.25605355205263        0.09864450922322
N           -2.63577013686520       -2.58974846771599        0.10769238197008
C           -1.66195412440139       -0.35011605799082        0.02333123748459
H            4.89130133289042       -0.60497174435559        0.18811714396413
H            4.40394133557638        1.05796613017827        0.14705764833638
H            3.46125576497566       -2.30874825136355        0.06137577982938
H            0.53515564583843       -4.15544116632160       -0.26585827218800
H            2.25168384891405       -4.14782860074952       -0.26473792915143
H           -1.14106299893638        4.05706312977927       -0.15554713838155
H           -2.80965572798169        3.54707607997413       -0.10525327815125
H           -4.44508821285931        1.42890077431274        0.10246992299913
H           -1.68428990647700       -2.92135213757904        0.18417576084087
H           -3.43225338543330       -3.17055313203573        0.29858413728541
