27
 energy: -46.955309946966 gnorm: 0.000387921271 xtb: 6.6.1 (8d0f1dd)
N           -5.09494247288660       -0.44438378468534       -0.03204206985752
C           -4.02828790442500       -0.01695123072564       -0.09465845730405
C           -2.74916227627586        0.52780590470547       -0.17444349732730
C           -2.44664278770410        1.91511462179177       -0.35437777234128
C           -1.09297687720714        2.10512830350667       -0.33604869138292
C           -0.46701387105462        0.83264422161462       -0.16934238846025
C           -1.53671082821299       -0.15463634296514       -0.09619736652704
N           -1.30156554078119       -1.45557494484438        0.07487297904778
C           -0.06989739374272       -1.87700257808698        0.16420306869896
N            0.06228138252861       -3.23701788740471        0.33967398913689
C            1.09623050053208       -1.00877470528678        0.10682587384940
C            2.36530795337216       -1.58837323855573        0.14379080415481
C            3.58721794427964       -1.06041519338092       -0.26219663508607
C            3.82512717280887        0.26256987679361       -0.59379748916639
N            3.12065453282321        1.30122696147803       -0.20364655726206
C            1.90679547634730        1.35901143221056        0.26580209974169
N            1.59021882494667        2.43579633552628        0.99543379658397
C            0.83058301108948        0.40308940643487       -0.00324210072410
H           -3.19432742738563        2.67818132338071       -0.47768781509110
H           -0.58786746094431        3.03864992358440       -0.51060406441448
H           -0.82482379231948       -3.70887876534456        0.23663055565807
H            0.83151277477292       -3.70982066943660       -0.10445947090486
H            2.39438315888246       -2.63897832294412        0.40102229270005
H            4.40941136614097       -1.75405311928736       -0.37316978052609
H            4.73924897276119        0.52339603208987       -1.11484113696166
H            2.30132704056385        3.11601531688599        1.20273309538497
H            0.64548077859155        2.57296437084332        1.31202552127974
