26
 energy: -48.023449253956 gnorm: 0.000891272029 xtb: 6.6.1 (8d0f1dd)
N           -4.51984882557548       -0.61247396549909        0.33089199043877
C           -3.38924287236870       -0.45325817559593        0.21567157015497
C           -1.98967596047331       -0.33418859218149        0.09875499447163
C           -1.19522121345529       -1.49863100170118        0.03659224808493
N           -1.81813828078417       -2.71924554614208        0.03600568319608
C            0.21149036242016       -1.40828712996324       -0.07029393710427
C            0.93528591833274       -2.58212578574607       -0.39651391919175
N            2.14997118781571       -2.90615025333421       -0.08596165087276
C            3.16268577914814       -2.18342424701437        0.32094551214534
C            3.31620342370282       -0.81329568979228        0.11809168657656
C            2.28137148255780        0.07823866269557       -0.09395597352430
C            0.88616138993986       -0.11361573579836       -0.04601135768284
C            0.06441398149803        1.02109747196847       -0.04868072040186
C            0.29945943240141        2.41836862740902       -0.05903646690025
C            1.50301669420684        3.11455926593304       -0.11389537551444
N            2.49209911780686        3.70256343948192       -0.15912155126769
C           -0.98089085409306        3.01202007967199        0.00814950890097
N           -1.96536332656458        2.12558016112108        0.05953707163953
C           -1.38068517809658        0.91636387025235        0.03389646932420
H           -2.80836269092944       -2.71764504670042        0.22268414574681
H           -1.31366246316709       -3.53137287429103        0.34252457385895
H            0.39420201629794       -3.37030441385131       -0.91378045750335
H            3.97996258363072       -2.75664720599655        0.74426856781699
H            4.31516366603230       -0.40555937538839        0.18608383357025
H            2.57996302876210        1.11380440353476       -0.19864384430789
H           -1.19156123154573        4.06597223212694        0.01376310784561
