29
 energy: -55.994746128421 gnorm: 0.000670094107 xtb: 6.6.1 (8d0f1dd)
N            5.93194634604950        1.95682240238694       -0.06106783192206
C            4.86793023952202        1.52728172771158       -0.04444749303619
C            3.56126287409343        1.00224361723940       -0.02271599587579
C            3.25404588615378       -0.11729729425688       -0.81707641573435
N            2.24294708697154       -0.92160497066401       -0.66626901446831
C            1.07041215728608       -0.78955502097163       -0.09748031814504
C            0.22901345881586       -1.88393337360409        0.13811951319397
C            0.76388616690886       -3.17913473545079        0.24440359150961
N            1.15360314262373       -4.25342799841930        0.36375246232691
C           -1.18251353135377       -1.71714857374503        0.19531401066369
N           -1.97035467265612       -2.79483917501721        0.40028054377560
C           -1.70597375076094       -0.44012492701320       -0.04937596674011
C           -3.02983038214413        0.02356507058325       -0.17257507770711
N           -4.17802067895049       -0.70932305930077       -0.21891980034340
C           -2.98387122950367        1.45192857794714       -0.20813562140669
C           -4.12316237948287        2.25130636976093       -0.34007208052551
N           -5.09197221315272        2.85760098862908       -0.46073691612649
C           -1.66025026971747        1.86915000621266       -0.11746770926853
C           -0.84637233307409        0.72589324994869       -0.03549818905921
C            0.52628169408167        0.58057384097370        0.13774795895646
N            1.29567997819317        1.49391897428553        0.67714948345635
C            2.58607280324311        1.61201185041846        0.78934238508272
H            3.96797957905702       -0.43524876643354       -1.56989335546140
H           -2.92633213240597       -2.65783569807421        0.67960668455700
H           -1.52786871167149       -3.66636944361081        0.64829615904457
H           -4.13938402478697       -1.62118287937401       -0.64637618704772
H           -5.01786071418409       -0.18430474780047       -0.41677927842888
H           -1.31638049625327        2.88559820523115       -0.12836733485053
H            2.90500609899768        2.34914213980330        1.51950657488030
