28
 energy: -51.468747928343 gnorm: 0.000739103088 xtb: 6.6.1 (8d0f1dd)
N            5.46793632623733        0.60604164608522       -0.03090904989930
C            4.40045975461083        0.18287250221339       -0.00497591569237
C            3.08098573493112       -0.31625455989135        0.03673160756007
C            2.92301895341450       -1.62967017478417        0.48410494411336
N            1.91305358746671       -2.42091146239040        0.23100903209283
C            0.71503579513429       -2.11217403703968       -0.16537759050269
C            0.02986039086911       -0.88230143480019       -0.05643004577563
C            0.65178164592812        0.42398323916078        0.00149176453300
C           -0.17283876837675        1.56102908245363        0.19751193141537
N            0.39102611141097        2.84133295127417        0.34520234493706
C           -1.56252785989854        1.46253430556687        0.23654212949544
C           -2.17739285284968        0.24302453103750        0.05039244118791
C           -3.51208658907882       -0.22290406110017       -0.00060539920993
C           -4.67219731926030        0.54142267599219        0.08478016250805
N           -5.61962116072627        1.19012472692311        0.15653526347742
C           -3.40130867923672       -1.61685063829150       -0.15042830280700
N           -2.13994143075266       -2.04558017139315       -0.18749099311445
C           -1.36793963944329       -0.94850633555204       -0.08480455050776
C            2.04435288646493        0.59479056649181       -0.31686739757999
N            2.42703956115125        1.72913278649036       -0.91925600503355
H            3.76664017932147       -2.10846572769334        0.96964430643300
H            0.10851587111013       -2.95008245910007       -0.49334054174381
H           -0.30378783315279        3.52927249242482        0.60581587457781
H            1.18462403041980        2.88008435460486        0.97242502880272
H           -2.15230028868767        2.35433334544877        0.40374572573139
H           -4.21428503974579       -2.31605677933704       -0.22976894000093
H            1.74864710520262        2.45680937625901       -1.09293467011201
H            3.40129205393634        1.89204810274656       -1.11811679878572
