24
 energy: -38.972814279211 gnorm: 0.000651318232 xtb: 6.6.1 (8d0f1dd)
N           -0.23610644540034        3.13399173552913        0.18336099319215
C            0.19230208014439        1.81909874848416        0.11843978832890
N            1.48428283954652        1.65685111445698       -0.01852979775018
C            1.97240195145196        0.41886658138646       -0.12730534841503
C            3.28305078666386       -0.01322395972612       -0.21327320787138
C            3.27176211174553       -1.42771797862133       -0.18582609178331
C            1.98245365754473       -1.89345073786424       -0.06063317504098
C            1.11861438438514       -0.76723725811294       -0.01644195207258
C           -0.23817655479762       -0.61015668363868        0.13256639869096
C           -1.06568408467579       -1.72723095872369        0.50358765483878
N           -2.30354604214200       -1.96170879658134        0.25211024742460
C           -3.21863315382900       -1.15547417890129       -0.27585474318107
C           -3.21456718722082        0.22258022767225       -0.28521325481059
C           -2.12166546965643        1.06072010065764       -0.03963233530197
C           -0.77571548157462        0.74356765438790        0.08322474949824
H            0.54631511814961        3.77134729643914        0.22359360533774
H           -0.95950281828420        3.34645211219303        0.85272905395324
H            4.15469468578656        0.60957349868410       -0.27426027807349
H            4.15234056018438       -2.04263540719102       -0.25103952070630
H            1.67470677231215       -2.92280545725040       -0.04580674776122
H           -0.55479577408597       -2.52653769479683        1.03351081955139
H           -4.10253336760645       -1.67938773371257       -0.62089802514893
H           -4.14862014419882        0.71250978001934       -0.52837344090345
H           -2.35048886004273        2.11735300991032       -0.08365539379558
