24
 energy: -44.568073689774 gnorm: 0.000971337661 xtb: 6.6.1 (8d0f1dd)
N           -4.19119574265508       -1.79906185197325        0.18460695612389
C           -3.30737275942224       -1.06880103860230        0.13961663557650
C           -2.26763304090717       -0.10726575798981        0.09716986143005
C           -2.70437385533029        1.18719120706179        0.41011413662961
N           -2.12424757408849        2.33369077475260        0.16773569223623
C           -0.89023103837637        2.53539717099963       -0.22347866573951
C            0.21750359254420        1.68343124819962       -0.15929643769530
C            1.43046413935897        2.36410860196038       -0.42539827408727
N            2.34679597777474        3.00017034727554       -0.69233841176683
C            0.24666269238588        0.27061734437578        0.01467457667994
C           -0.94271221539579       -0.57252726589180       -0.12803934073947
C           -0.78183237605155       -1.94401845379314       -0.37610492732605
C            0.44606528611310       -2.57714237373357       -0.34940246223092
C            1.56686392411080       -1.83134406401910       -0.02967580526191
C            2.92601392759345       -2.12842487401580        0.16803086380201
N            3.61963196764218       -1.03338706167290        0.50064021254210
C            2.78384195319490       -0.00162403329470        0.49496813907117
C            1.45997465035585       -0.40030631494887        0.16289469655279
H           -3.70723927616310        1.28105972428128        0.81515472161197
H           -0.70089190626575        3.55447398727877       -0.54756527634077
H           -1.66950249368785       -2.53134915265138       -0.55832034898323
H            0.51679659734348       -3.63864502724502       -0.53333934199091
H            3.41054294456920       -3.08374502990430        0.08867055144389
H            3.13682894885692        0.97356990375052        0.77042784336209
