26
 energy: -43.234616707725 gnorm: 0.000766143678 xtb: 6.6.1 (8d0f1dd)
N           -4.65493713459267       -1.41729510901858        0.15662847525560
C           -3.65790910729367       -0.84275682060618        0.10208299576233
C           -2.47413253701933       -0.11635273598615        0.05367888452802
C           -2.38487247779059        1.30517561470977        0.04649051980596
N           -3.45642687121929        2.14212001420478        0.01929455860371
C           -1.03844777169600        1.67275709796600        0.00169986864670
C           -0.25503066652238        0.50831204804569       -0.02577039771768
C           -1.16160771818476       -0.62529100390314        0.02083617614711
C           -0.66509407076284       -1.91663472085140        0.00479722804933
C            0.70156371528910       -2.11312242356251       -0.05413556810704
C            1.62938556020519       -1.06133191000765       -0.05472855330618
C            2.98974498421538       -1.41425592824196       -0.11665635502936
C            4.12597264346498       -0.64520992494431        0.04172721409791
C            4.16586531466646        0.73264989584811        0.25707914776395
N            3.23295188144880        1.61685963425689        0.00155135868687
C            1.96748199483091        1.43337878663190       -0.26127629828452
C            1.13106872328924        0.31482597768463       -0.07136914452170
H           -4.35952436401934        1.75762568402372        0.24113862290887
H           -3.30971292987872        3.11426811002945        0.22853821262098
H           -0.68618436230279        2.68731260848978        0.01045671632231
H           -1.33834167436948       -2.76118269195550        0.03563786022529
H            1.08152334986968       -3.12433780852759       -0.07857829524695
H            3.16649682498761       -2.47960907801040       -0.21864259217116
H            5.07402046926442       -1.16642034471668        0.05938382654111
H            5.09908304716808        1.16934558235415        0.59960158316067
H            1.47362488045267        2.34016023718752       -0.59840248224232
