31
 energy: -53.848517368163 gnorm: 0.000705734730 xtb: 6.6.1 (8d0f1dd)
N           -0.63889229650713        4.31118907988672       -0.01012796799201
C           -0.52926147458773        3.16469281092700       -0.02473703365637
C           -0.51013724943853        1.76091582526252       -0.03503837080784
C           -1.77966630294298        1.12294976969176       -0.10172911270840
N           -2.91718244441605        1.86297228579895       -0.21266337154190
C           -1.78706871402424       -0.26085273846042       -0.05628275189530
C           -2.80937522922685       -1.24207244920892       -0.05764282063845
N           -4.16087901121821       -1.04204528392209       -0.17889883829521
N           -2.31211575211584       -2.46731480012443        0.14261984274928
C           -0.97460238133536       -2.34487447662022        0.23741415553313
N           -0.21459342906837       -3.46239966590972        0.45249553047110
C           -0.55331147589965       -1.00100267369323        0.07899893590425
C            0.70671864404337       -0.38722238564761        0.01986101831506
C            1.84962383952757       -1.18114956246532       -0.14535489379200
C            3.20664230770479       -0.84916079995788       -0.16294079863580
N            4.09163344324484       -1.85783806824770       -0.40646240275417
N            3.81909677873297        0.30487049821923        0.11297089713263
C            3.20857472518456        1.45532130006633        0.30069059434821
C            1.88405429381585        1.83568771768178        0.20735543610937
C            0.71422076627476        1.06424165319090        0.04432313864857
H           -2.83295126174547        2.85905260635262       -0.07712756345359
H           -3.77802884132399        1.43972371155524        0.08980935954889
H           -4.44418250053931       -0.34206559248134       -0.84837035179471
H           -4.67073466466717       -1.91035735920267       -0.26121992425160
H            0.60992562299389       -3.33594969183714        1.02071771778036
H           -0.77470402183077       -4.26539105972235        0.70095075060642
H            1.64852088602782       -2.22417154783638       -0.35064209354280
H            5.05295913231838       -1.58782205666449       -0.52420809026198
H            3.77974692389135       -2.71773936232028       -0.82073247355591
H            3.91226019311486        2.25414469069367        0.52293655243381
H            1.71198524591097        2.90100234789767        0.30893986039755
