35
 energy: -62.326007007221 gnorm: 0.000984795968 xtb: 6.6.1 (8d0f1dd)
N           -5.93124555564174        0.65301761159120        0.73290044410388
C           -4.83987099106447        0.36333873830481        0.50563565470628
C           -3.51360833167305        0.02637894147913        0.25198233268393
C           -3.02495727458202       -1.26013246656837       -0.02889209958603
N           -3.76460632864897       -2.37915490821100       -0.17871282322095
C           -1.60740990692710       -1.15999189853850       -0.15078254673906
C           -0.64456145304434       -2.10058847171648       -0.40952446512819
C            0.70104205521164       -1.71470924042853       -0.37054344295809
C            1.63735287495362       -2.70803966487167       -0.72043660729528
N            2.30766961291716       -3.55210046508494       -1.11955749280272
C            1.11118997222901       -0.38239673537697       -0.11076537683969
C            2.46749088630811       -0.16903194446578        0.23954553642416
C            3.14846894233193       -1.28245921602845        0.77343921123509
N            3.74869881076041       -2.08869804056210        1.33594552794647
C            3.24639784643676        1.01999736587994        0.21581413890619
N            4.54955876694370        0.90622075122232        0.57866878664683
C            2.83114538804505        2.27541333007881       -0.21697522738802
C            1.54359012502704        2.71831809794758       -0.51983544106889
N            1.42188861930860        4.03606532032885       -0.88020943986646
C            0.34964995217448        2.00737816744467       -0.38624098960248
C            0.10183701794420        0.65697283876008       -0.13192156214882
C           -1.23585132272766        0.22671189948970        0.01765068217188
C           -2.41972143511828        0.93989021171840        0.29368834247232
N           -2.56762137663064        2.26869642737815        0.57025974846008
H           -3.31014114867911       -3.27251143911833       -0.23588735187303
H           -4.74464609732847       -2.35312700953814        0.04318156832703
H           -0.88510765166170       -3.13321425936286       -0.61999415865805
H            4.91550446497701        0.02643883884383        0.89890936471191
H            5.13899926458348        1.71766052851232        0.60502935309438
H            3.61249359904927        3.02329999887316       -0.28689468379799
H            0.55587693888132        4.33808023737974       -1.29234602024522
H            2.24774695586540        4.52951274935578       -1.17154382199494
H           -0.53420794400387        2.58911376754884       -0.61207264530533
H           -3.47547801021928        2.53423045462183        0.92431179032461
H           -1.78515321249719        2.73295463081417        1.00613922920334
