29
 energy: -50.405023234028 gnorm: 0.000633704854 xtb: 6.6.1 (8d0f1dd)
N           -5.64198005536552       -0.87245474783535        0.11654062522461
C           -4.50324479530029       -0.70170229088210        0.08894748353746
C           -3.12174132941850       -0.46173316109657        0.04979999149171
C           -2.27746044152092       -1.56617575082890        0.09886837100152
C           -0.89955745839609       -1.61132663849458        0.06495527953035
C            0.03870677406359       -0.56958015618560        0.01090547906696
C           -0.28465044475037        0.85757025291692        0.00439306704796
C            0.74611236893095        1.79207568606975        0.05849303318333
C            2.10511908131561        1.46917550823481        0.07382000103025
N            3.05238560273271        2.44812962761180        0.13210284960054
C            2.43934500437644        0.11680988876895       -0.02031060454544
C            3.64875192558388       -0.60602185080986       -0.09066151766134
N            4.92872603955152       -0.12192527720821       -0.12462992526351
N            3.42204566403992       -1.93916045991622       -0.09401806303616
C            2.10759313104095       -2.11103246555614       -0.04959944253007
C            1.40567163659519       -0.88262104022026       -0.01676884230457
N           -1.50197081140784        1.42127762994075       -0.05105963555136
C           -2.70323159682447        0.91204887062311       -0.05860845284447
N           -3.68704762834926        1.83597946187879       -0.16722294064153
H           -2.78213682677192       -2.52400831598669        0.16455092344694
H           -0.47059018041592       -2.60383279567371        0.09864390534283
H            0.45455795575121        2.83132043631514        0.09347142780406
H            2.73674569102397        3.37496675203471        0.36863297221082
H            3.96399544646245        2.19171722400315        0.47240680651486
H            5.07560510754214        0.72696959940261       -0.64925605971692
H            5.61287683429240       -0.84339502488831       -0.30192634365770
H            1.70777343543640       -3.10843056218842       -0.05526487796025
H           -3.41976816073078        2.80064065500628       -0.24611660722974
H           -4.65590034628771        1.57062484636393       -0.18699909249110
