31
 energy: -58.652153591069 gnorm: 0.000865884384 xtb: 6.6.1 (8d0f1dd)
N            5.65388275567541        0.84727338139507        0.33303595936317
C            4.50506574487327        0.80851431043908        0.28287852099378
C            3.10364509637772        0.74112487706477        0.21224182568943
C            2.38220683395587        1.80665372137617        0.76575509130989
N            1.14807356130957        2.14144940070465        0.57403524782726
C            0.11832666512721        1.47987137005691        0.06897250560581
N           -0.89370937818224        2.22783118069418       -0.33192199174539
C           -2.12183502968134        1.72521029405075       -0.43129072488662
N           -3.08812314332109        2.56427623779193       -0.89435401522376
C           -2.37818373234697        0.43801293684800        0.04086085873442
C           -3.54097201335137       -0.31512011246216        0.31704359787837
N           -4.82802262016413        0.09775123026831        0.22643977782772
N           -3.24030089742115       -1.57428598185862        0.67540345758670
C           -1.90785815477709       -1.70385721661867        0.62836601596044
N           -1.35648282881733       -2.84322309718098        1.07804237330108
C           -1.26777228918128       -0.46473250928444        0.24280431461864
C            0.02903210092939        0.00714340846760        0.07710703186543
C            1.16433402441341       -0.79024718957698       -0.26276066269419
C            0.87277189238114       -2.08041666356617       -0.71746867061128
N            0.64967621055682       -3.15925079821236       -1.06383477052907
C            2.53034259222808       -0.43659344613460       -0.33886621715209
N            3.38541449019459       -1.32686613554913       -0.89389055725030
H            2.94244919609914        2.51041426367780        1.37551435885624
H           -2.74371541621113        3.41782788307466       -1.30504711870910
H           -3.91172440884551        2.15824648837673       -1.30627655381246
H           -5.50566872776014       -0.53909891335402        0.61563459214010
H           -5.01219885181942        1.08016836555185        0.34943116560011
H           -2.02443726146355       -3.57669994658341        1.26137257601726
H           -0.44982366230516       -3.13380563217984        0.74435083141590
H            3.06113996191777       -2.22785870340982       -1.20147445385939
H            4.37435343081239       -1.14313939966764       -0.87396757191748
