30
 energy: -50.127605954224 gnorm: 0.000371756129 xtb: 6.6.1 (8d0f1dd)
N            3.67795793419814        3.16737576608316       -0.10593006403391
C            2.78466455585508        2.44512777208875       -0.09872119763326
C            1.68617666554260        1.56394932292590       -0.09239667122369
C            0.40014587599362        2.05710130727309       -0.20644000362098
C           -0.74001038034641        1.22741057128322       -0.17978144483962
C           -1.98328448597765        1.89083526183340       -0.17936413705802
C           -3.24615541156596        1.42033393647458        0.07447445266766
C           -3.60036153231412        0.06962303546536        0.27494487525516
N           -4.82041325743344       -0.21216582939861        0.79262364397257
N           -2.91654686796330       -0.98483980012413       -0.12828668090588
C           -1.65358462228164       -1.08941439707424       -0.47036984176074
N           -1.35608326400408       -2.21285820754942       -1.14726150967404
C           -0.55422213264829       -0.20330069259861       -0.15587934226044
C            0.73133996124730       -0.71496361596660        0.01134722492961
C            1.23572413022573       -2.01821020821880        0.18456248131186
C            2.61928675181154       -1.93469159936932        0.32690848151233
N            3.47850681987819       -3.00098634077750        0.46050396056553
C            3.02528629146039       -0.58449860576132        0.22059390048121
C            1.88892286542533        0.18017116358624        0.05565003282608
H            0.25739709011009        3.12598474658410       -0.28283362830427
H           -1.91078972881602        2.96671080743477       -0.29404268979708
H           -4.04481651842203        2.14417684467357        0.16870992232860
H           -5.05959159431218       -1.17242677290448        0.96195250552074
H           -5.40134921505055        0.51622952771905        1.16330873682423
H           -0.41718490791527       -2.36760815788684       -1.47214761571260
H           -2.10318899997157       -2.82988316711806       -1.41318246384829
H            0.66836899456718       -2.92575608397612        0.28961889046940
H            3.07771303421458       -3.84976736530847        0.82746723801960
H            4.39170687989655       -2.78073443340385        0.82522070075569
H            4.03627089659488       -0.22556765508784        0.27434295393227
