27
 energy: -46.958290293817 gnorm: 0.000638947163 xtb: 6.6.1 (8d0f1dd)
N            1.83330772911285       -3.32354849843336        0.07754918082616
C            1.84513147036316       -2.17022612421479        0.04503124324124
C            1.95339642624079       -0.78555127250841        0.02155208279448
C            3.21752928169128       -0.11626414015609        0.03712435193463
N            4.41213635825188       -0.75661578741884        0.00258056626192
C            3.01099440122728        1.26472284671330        0.03426461748683
C            1.63650417645975        1.49239162693723        0.01954218625122
N            0.99160942271725        2.65270414882235        0.01868897772357
C           -0.32017700153721        2.61330744819077        0.00388764628184
C           -1.12261576541371        1.45375583211721       -0.00813599152627
C           -2.51223307297559        1.63954994758260       -0.02139126256941
C           -3.53772586647738        0.72552881490114       -0.01543014395835
C           -3.44004828646964       -0.68120895971003       -0.00357391543122
N           -4.58177975513265       -1.39795485033905        0.04039606368153
N           -2.35306189051213       -1.45878794125007       -0.04860954664694
C           -1.10212572370664       -1.09219541933402       -0.06082417945435
C           -0.45213286997044        0.15945327814589       -0.01216733091060
C            0.94659255503293        0.19770458120681        0.00745931546748
H            4.42820846757674       -1.74877054466214        0.16926855408048
H            5.24691341119689       -0.23415617790247        0.20181455956281
H            3.77441305958988        2.01776604842619        0.04204469430337
H           -0.80652916655697        3.58188048036204        0.00479728177261
H           -2.82167925018065        2.67919506815853       -0.02778245669572
H           -4.54633422260832        1.12002580861599       -0.01349229197700
H           -4.50451670915381       -2.40035146618764        0.04470423103918
H           -5.48422742152494       -0.96030265672721        0.07505681596093
H           -0.43290728324098       -1.94768183363583       -0.11140554160079
