32
 energy: -59.962417182409 gnorm: 0.000591668474 xtb: 6.6.1 (8d0f1dd)
N            5.36533981537484        1.70688615602229        1.03423765404894
C            4.37497087865764        1.21823193876798        0.71665716490007
C            3.14971485627009        0.63162845651205        0.33602416299412
C            3.12263019240170       -0.75464148426104        0.32049586758351
C            2.09235887053264       -1.62852079609099       -0.00344252019890
C            2.52590735809072       -2.97633403736349       -0.05503765851969
N            2.94105219598936       -4.04545532263143       -0.10545492200200
C            0.69772859285101       -1.38167716814927       -0.16322212147479
C           -0.12753307245286       -2.50482762827739       -0.33378853708608
C           -1.50599129003909       -2.44046298297916       -0.31951557393366
C           -2.10755708615653       -1.21852641804681       -0.08424758972588
C           -3.46430052139409       -0.84374059931958        0.09371208422538
N           -4.54343439897154       -1.63806910124203        0.05234380446869
C           -3.48037767330293        0.55872192865583        0.36463979727765
C           -4.64765869957095        1.27648380397400        0.64428779562147
N           -5.63724606040813        1.81389244013483        0.87244390082169
C           -2.17929916581933        1.04341686687348        0.32420965430586
C           -1.30035250993945       -0.03066176051660        0.03132048807742
C            0.09175426570356       -0.06807601189750       -0.11518146141362
C            0.78625888506698        1.16337107310189       -0.34060317079976
C            0.02525375534310        2.20168514613372       -0.92063378577205
N           -0.48216383792198        3.07175163381468       -1.47747257040473
C            2.12555184048690        1.52237839023178       -0.10400396727255
N            2.48849874706359        2.81018021684615       -0.28300455909023
H            4.06609918838747       -1.23036399534590        0.56968317031453
H            0.34655625947224       -3.46667074889418       -0.45678899726879
H           -2.08613620125724       -3.34216278670853       -0.45218487728271
H           -5.45782522219705       -1.24905188455122        0.20860993804400
H           -4.45162875725690       -2.62035556157762       -0.13516314954931
H           -1.90868359172368        2.05973277386512        0.53756850093213
H            3.44167514413759        3.09220964637436       -0.12688168534985
H            1.82179672507264        3.48963601544904       -0.60920520997343
