31
 energy: -53.855574983695 gnorm: 0.000663365138 xtb: 6.6.1 (8d0f1dd)
N            5.20545287549697       -0.54592303613339       -0.03972765128022
C            4.07715164452301       -0.30563050997730       -0.00364516378742
C            2.70794707027016       -0.01742929208961        0.01702363919774
C            2.33992901122193        1.34939160757577        0.07422958881655
N            3.35368120339228        2.25015850331400        0.18430181473344
C            1.04862393881592        1.86472698086901        0.03315522307246
C           -0.19912384981039        1.23597453699423       -0.01523327376534
N           -1.22489699696362        2.09126154898627       -0.05938929881068
C           -2.49319820733287        1.68237262785170       -0.05137850721338
N           -3.42924907626020        2.66541718981710       -0.05511177996334
C           -2.82152554213183        0.32496462549972        0.01355965154851
C           -4.01429857933222       -0.41510695421415        0.07643994741080
C           -3.70386334928433       -1.76957638869964        0.13173972633056
C           -2.31302774975894       -1.91956704147679        0.09635819430369
N           -1.56733001655668       -3.04419213746636        0.09004533493887
C           -1.73532518154651       -0.61107767342052        0.02360607280046
C           -0.40519569741339       -0.21660408996866       -0.00566399940140
N            0.51587788818691       -1.19357887658213       -0.03423727153933
C            1.82601202310937       -1.13409813335188       -0.04786496389682
N            2.41403122380148       -2.36426486670880       -0.09041339246820
H            4.30946264995377        1.94505714304597        0.12173909178040
H            3.15372323063618        3.23144266795493        0.12157992184051
H            0.97703107173258        2.94567888803507        0.05313235933449
H           -3.11061238344748        3.60110889112422       -0.23664450893702
H           -4.38685286605555        2.43331572796664       -0.24385317005914
H           -5.01071119069659       -0.00923032616186        0.08827618016017
H           -4.41430293078704       -2.57391996795994        0.19236864354557
H           -0.57351815006025       -2.86988234330662        0.18414249328483
H           -1.97057718753932       -3.92342195422449        0.36282124642822
H            1.82871184314150       -3.15704803089705       -0.28393575929642
H            3.40483887679511       -2.44520619569539       -0.23901649570857
