28
 energy: -53.060543391107 gnorm: 0.000884961260 xtb: 6.6.1 (8d0f1dd)
N            5.78764610927139        0.91263857224398        0.85393533689683
C            4.66350779525667        0.88673844626015        0.62742199180595
C            3.28610939373857        0.86257267924969        0.35494034111836
C            2.49906316630076        1.98296746846339        0.05841163968760
C            1.17782103652330        1.53969103241023       -0.09829653784934
C            0.01280130440048        2.20583803710849       -0.41065533329963
C           -1.19432956974883        1.50282906559736       -0.38632311659861
C           -2.35071817282394        2.22822522969072       -0.75776725466121
N           -3.21082582089192        2.86219445676621       -1.17432681825089
C           -1.26319210558818        0.12028883138822       -0.09529109446811
C           -2.51793683287757       -0.41963588250612        0.28936403063456
C           -3.49495375568731        0.49799146898623        0.76852738988498
N           -4.30307481480535        1.13058306718877        1.27962337196667
C           -2.95220075076188       -1.73886418236744        0.39301431202910
C           -2.28652372497399       -2.89536975165630        0.02469185851243
C           -0.96426680868675       -3.00613350465062       -0.36892421556446
C            0.03696487835375       -2.03602508881954       -0.35317660328164
C            1.28027531468443       -2.57179782320224       -0.78639834594243
N            2.21148062782560       -3.09403780182486       -1.20404434298497
C           -0.01937041589418       -0.64298702141567       -0.08522792919898
C            1.16532733514436        0.09276272988954        0.06987308169513
C            2.48384381716955       -0.29264801465225        0.35570650412570
H            2.84458762334356        2.99632446058690       -0.01949277507209
H            0.00787056228837        3.26315619175961       -0.63198446682108
H           -3.96696711598800       -1.85897306292581        0.75295955512970
H           -2.85938340581243       -3.81198012186419        0.05403689774364
H           -0.63652137397143       -3.99315109516000       -0.67377798979953
H            2.84142187041177       -1.27640226574403        0.59114352526188
