31
 energy: -54.641295932687 gnorm: 0.000831651317 xtb: 6.6.1 (8d0f1dd)
N           -3.42260272175768        3.14585711127913        0.46428808944629
C           -2.92308042645409        2.12278545048137        0.30776882979620
C           -2.35916301262954        0.84025130431460        0.12444382491713
C           -0.97892244830432        0.78475504127389        0.13854539476932
C           -0.07160095773683       -0.28265962037653        0.05175098836127
C           -0.44017728698035       -1.69992091202677        0.03165167434924
C           -1.72446366235934       -2.18506844874472       -0.16899894571046
C           -2.95825390123981       -1.55919169820557       -0.26698834943622
C           -3.29533643944278       -0.21879303671375       -0.10385197211517
N           -4.60156262121383        0.12079387237709       -0.17181043940511
C            0.62723401730044       -2.65612144681546        0.14782482323880
N            0.35663065643995       -4.00677779761776        0.24547200757050
N            1.90967160501628       -2.36343890946274        0.10782266706584
C            2.26641932596045       -1.08702896968301       -0.00234382586954
C            3.54422455575672       -0.55072524307350       -0.07504304609350
C            3.42094127844183        0.84566968045534       -0.10769875563076
N            4.43458403535438        1.74147831593152       -0.13841611276110
C            2.04141985099048        1.20165026905226       -0.05308464855867
C            1.60830858239804        2.51982517587815       -0.09553145243983
N            1.31280706952975        3.63414940500128       -0.14457568878969
C            1.29324902993033        0.00586260039255        0.00667058469436
H           -0.50313004285282        1.75400911045105        0.24672415777359
H           -1.78120086937598       -3.25813381047034       -0.30436798685867
H           -3.79750110103966       -2.21557796028283       -0.46638967195311
H           -5.29975938169523       -0.57714020087396       -0.35593966779560
H           -4.88529392203070        1.08088245335245       -0.07137362924620
H           -0.41423203648206       -4.29139464374053        0.82718667340468
H            1.19976808212688       -4.54311910598500        0.38994496532623
H            4.46353960267875       -1.10223997884888       -0.09742874665763
H            5.36585759708812        1.42488824157368       -0.34122425750336
H            4.21898880708411        2.71220676080649       -0.29000085388987
