28
 energy: -46.666791706550 gnorm: 0.000614903427 xtb: 6.6.1 (8d0f1dd)
N           -3.98621541648945        2.42634635020876        0.35438035326369
C           -3.20144495023266        1.59565814102033        0.23292961880342
C           -2.25001789329166        0.56053941545565        0.08834869107213
C           -0.92822141026714        0.97420061502414        0.08698518671791
C            0.28639977567200        0.27464006930200        0.02189193061465
C            0.41816459243184       -1.17776172799254        0.02019397253151
C           -0.63617140090749       -2.07470255144093       -0.16263326962723
C           -2.00374461282151       -1.90486741595800       -0.23809719865787
C           -2.77671413457880       -0.75077198204033       -0.08555331455676
N           -4.12471177175667       -0.88411005682952       -0.11136931237467
C            1.73783517965070       -1.71926044640987        0.13640331854644
N            1.93523544337037       -3.08910018309892        0.23653590541380
N            2.85187510303590       -1.01197863593449        0.09341068819484
C            2.76245311940204        0.30279352361311       -0.02184420299101
C            3.77622916902904        1.25684094860573       -0.09553602014208
C            3.16498425588702        2.51068262592845       -0.13427647979681
C            1.77637564735363        2.37680811558707       -0.08746807305500
C            1.47291883591212        1.01303316892466       -0.02298232683663
H           -0.80621872791287        2.04830361859322        0.16688852195826
H           -0.32163768675020       -3.10233969702909       -0.29755903041115
H           -2.57708698220667       -2.80835041066501       -0.41249176651336
H           -4.54142357801210       -1.78197542817589       -0.27921461436695
H           -4.71862476287319       -0.07579177532670       -0.04020484295048
H            1.33628696475914       -3.59099966239351        0.87365123541834
H            2.91505972655197       -3.30072323845297        0.36421836770383
H            4.82983216731195        1.05672616818533       -0.11365880528138
H            3.68723256201350        3.44979492718602       -0.19464318102676
H            1.08005782821898        3.19573301951491       -0.10879103675066
