29
 energy: -51.193734774345 gnorm: 0.000719318577 xtb: 6.6.1 (8d0f1dd)
N           -2.86131343552698        2.83638994099454        1.01329039497525
C           -2.41161561176825        1.86488330106625        0.59640185401312
C           -1.97166988252689        0.57325511865901        0.22449049955020
C           -3.01395418995683       -0.36378950124750        0.27334604211162
N           -3.05929484350984       -1.63663275640540       -0.00238793336357
C           -2.00096257933569       -2.42782879967739       -0.22839056024262
N           -2.36220028931134       -3.68176587749043       -0.59344128553785
C           -0.64120909199931       -2.15302640997470       -0.06997947140704
C            0.04393398601455       -0.93592113045753        0.04557705141237
C           -0.58598037147515        0.37454349327629       -0.02722112847566
C            0.22590325271970        1.50180355235405       -0.26512628503974
C           -0.31283172979982        2.75271866435384       -0.63443235163779
N           -0.61475862668245        3.78316711995865       -1.04210977726730
C            1.62958153705252        1.44060293459459       -0.23699994095456
C            2.23524815296684        0.24447126255914        0.03037440897200
C            3.61140355240005       -0.12979921228246        0.16263227153011
N            4.66807940153672        0.70909165326936        0.05992626244727
C            3.65132696288893       -1.51348994448763        0.36109771285424
C            2.35513753234980       -2.01465358844307        0.35333682453583
C            1.44519093277115       -0.95876351114519        0.15667989362220
H           -3.98651494960026        0.04289292785950        0.54134758193024
H           -3.34324052847122       -3.89729849908038       -0.61340854005117
H           -1.68717081860679       -4.41840878383520       -0.68220964405766
H           -0.00205237193908       -3.02461741803775       -0.12784267280689
H            2.18913753348776        2.34871921886994       -0.41584555671229
H            4.51275893994226        1.70155373563477        0.07307151253765
H            5.58362482259411        0.37584129312199        0.30539236913551
H            4.54556118474934       -2.09246194732098        0.50240725068236
H            2.10866619705130       -3.05066700956536        0.49919720549270
