28
 energy: -46.667352105036 gnorm: 0.000580820334 xtb: 6.6.1 (8d0f1dd)
N            3.45464451409593       -2.98665259594164        0.12143669206362
C            2.79258398901970       -2.04795231511998        0.08569136823690
C            1.99760793435290       -0.88144875507288        0.03919117269737
C            0.63907260099709       -1.09071970342033       -0.10669929444280
C           -0.45419995081886       -0.21361555404744       -0.06082585819917
C           -0.40418782040526        1.22625106277935        0.04173220685395
C           -1.61357464235553        1.90139564153508        0.29036819312050
N           -2.81929714232988        1.36665003089966        0.34391454184562
C           -2.91972937204281        0.07248519701783        0.12860091635309
C           -4.06117438514341       -0.74333750875835        0.08381528153558
C           -3.62994306381904       -2.04099345999843       -0.12267447196150
C           -2.22514536923911       -2.08324551461426       -0.20991588290808
C           -1.74222660683269       -0.79105946330368       -0.07050898469096
C            0.78200677606574        2.01134110772407       -0.14775069714217
N            0.60781774537012        3.33313805360515       -0.40936686547777
C            2.11213856863865        1.60874862496680       -0.04181234415082
C            2.69297158581810        0.35775775773031        0.12289202767964
N            4.03566817556437        0.30267713157791        0.30928182553379
H            0.35949596161350       -2.13385335155679       -0.19215912360340
H           -1.60946206128378        2.96151245192746        0.51274047738567
H           -5.07382114936524       -0.40778739711579        0.19480808623617
H           -4.26835482821008       -2.90337316015403       -0.20849653954421
H           -1.65585217734907       -2.98175000539667       -0.36824451210490
H           -0.29683894987337        3.68656950682283       -0.66066890388193
H            1.40842936185778        3.91166013714239       -0.59187482965616
H            2.82859902430554        2.42348226611891       -0.09455907948326
H            4.58486304352565        1.14230782439755        0.31787223792521
H            4.50414223784234       -0.58554779234523        0.35595167097948
