29
 energy: -55.222100069148 gnorm: 0.000707072074 xtb: 6.6.1 (8d0f1dd)
N            5.94192374629198        0.25583061985090        0.56931918329955
C            4.85003947514764       -0.07422249849850        0.42421178783135
C            3.50795161092624       -0.41589226596540        0.24178973689140
C            2.97792235260208       -1.69128422615948        0.03483152855824
C            1.58189732573468       -1.57848947861673       -0.10998423826047
C            0.56249805220550       -2.45603816828542       -0.44933124050563
N           -0.69450611877214       -2.07112546313061       -0.50065021748776
C           -1.05588952955699       -0.80067037584473       -0.28207285112308
C           -2.43491806707964       -0.60709196934082       -0.08778271669039
C           -3.24145930147099       -1.76183303269033       -0.09771133645755
N           -3.97730416993060       -2.64562811841115       -0.09676562079265
C           -3.09982471450585        0.61735333857043        0.24674697956584
N           -4.35416211513307        0.52827637342791        0.72760070740695
N           -2.65918284115893        1.84802855434667        0.09159653458805
C           -1.42880607026250        2.22150713169888       -0.25732835587138
N           -1.34595383533105        3.51526620774362       -0.63366505951885
N           -0.26988036852366        1.59200283643731       -0.17259343779927
C           -0.06501490566374        0.27280328501820       -0.13007959960368
C            1.23842190139141       -0.18829620344778        0.02715654446973
C            2.44323626336436        0.53407870979151        0.23337167142236
N            2.50493440420358        1.85977812660720        0.38520938028252
H            3.54784850617152       -2.60039018834896       -0.01773976086020
H            0.74352276304724       -3.49813660812158       -0.67819536133235
H           -4.85747838210742        1.37888326226986        0.90764786114196
H           -4.81831305089821       -0.36155002699503        0.79276099871063
H           -0.46120124173811        3.91228522452957       -0.88908353181270
H           -2.18217761449174        4.06848620702922       -0.65448811820577
H            1.62854702245718        2.35223898221611        0.26976262023049
H            3.38698917368541        2.33909719371763        0.44542431712194
