32
 energy: -53.557882795689 gnorm: 0.000490412037 xtb: 6.6.1 (8d0f1dd)
N            0.03505887017389       -3.14930812916560        1.10575522107704
C           -0.42365450126497       -2.17506149737825        0.68398067390110
C           -1.03709698473827       -1.01238786863387        0.21106526349613
C           -2.45407494548824       -1.08047838431799        0.14153683677034
N           -3.02064446174124       -2.31865110110381        0.31293515277523
C           -3.31099473230103       -0.04329339690625       -0.18917300449802
C           -2.96912621586293        1.30633824903629       -0.37202461543154
N           -3.92981876647645        2.12773169916173       -0.89535752169758
N           -1.86166101382197        1.93845959729096       -0.05342735825999
C           -0.63402086164588        1.47804265571592        0.18091917690529
C            0.29211927893947        2.45297976552899        0.57722597158903
C            1.65265793724260        2.21707858044004        0.60128077453578
C            2.12290806047155        0.99625883211051        0.16405257144882
C            3.44783386101130        0.50298059160677       -0.02480789382833
N            4.58885845996106        1.21059777100242        0.19351929121233
C            3.36038271773567       -0.78704789964615       -0.54069973745391
C            2.01433917693155       -1.15271986887665       -0.65269343153857
N            1.60414703108139       -2.26922887807465       -1.29981848906071
C            1.20506019667865       -0.06044731949454       -0.17674892149604
C           -0.16863949207463        0.10533710646037       -0.00059967291361
H           -2.46293049388075       -3.04508103319581        0.73137578094577
H           -4.01116373031693       -2.36179257013493        0.47880206234210
H           -4.35650601968617       -0.29908092814200       -0.31093643255439
H           -3.74408480949549        3.11456144524187       -0.84498498304844
H           -4.88854510979857        1.82891320944512       -0.90766397817069
H           -0.10137232240798        3.42785257105265        0.81877300646996
H            2.33038487016175        3.00607901974063        0.89867301614666
H            4.52502977661478        2.03720941446225        0.76246489846655
H            5.45591241732914        0.70244735932925        0.23505327950012
H            4.19184639845594       -1.40637160916125       -0.82405099825779
H            2.29479509083275       -2.98358077686470       -1.45836967597636
H            0.65777415138365       -2.58880969852846       -1.18879714589691
