30
 energy: -55.725451696417 gnorm: 0.000768653339 xtb: 6.6.1 (8d0f1dd)
N            4.34308799641126        2.02858397592700        0.42106584874510
C            3.57095964694527        1.18786075585400        0.29015404079898
C            2.64909385761198        0.12737585953750        0.13258797352212
C            3.20104672883257       -1.07393200659004       -0.37935335746509
N            4.44586282149554       -1.02386204237926       -0.89299028969907
C            2.59938761594746       -2.34119006191287       -0.26331269993819
C            1.32155208465407       -2.65327519331982        0.11334790525985
C            0.18462975592575       -1.83225062991416        0.23032685576729
C           -1.06866765012503       -2.51044607840313        0.29205875727406
N           -2.23895231843631       -1.94729356787099        0.24530469765964
C           -2.27620119166141       -0.63026382708818        0.06860787475406
C           -3.39714943095083        0.20754536828237       -0.09315596623258
C           -4.73883217635741       -0.18389960527925       -0.08530920846236
N           -5.84948170347147       -0.47686393973722       -0.07498386935659
C           -2.92748382846791        1.51339717792578       -0.30090505126929
C           -1.53229117612647        1.53163522765270       -0.22308981324762
C           -0.73867386940607        2.64773331610502       -0.48311838897961
N           -0.06171229741026        3.55711142682149       -0.68784473089939
C           -1.08261973402857        0.19795966092444        0.02556865402447
C            0.16318905225082       -0.40325322425757        0.21375454946288
C            1.32955081957859        0.40359694919398        0.52381582471419
N            1.11009065629463        1.51212795937231        1.23937007801810
H            4.90491841735456       -1.86604454522077       -1.19180075630835
H            4.95178408786606       -0.15498232041169       -0.93706559545863
H            3.25379602610564       -3.17400077300452       -0.48953101997819
H            1.11392131778270       -3.71237908731981        0.20941709933333
H           -1.07099886387009       -3.59010325240510        0.36258594837258
H           -3.54481906189394        2.37123087238713       -0.49799566008071
H            0.16847130483792        1.78947801205737        1.46499114831866
H            1.84208473311057        2.19238396757309        1.37472942075017
