29
 energy: -46.402591773480 gnorm: 0.000794892336 xtb: 6.6.1 (8d0f1dd)
N           -4.81178753724431        2.13853402380567       -0.02903503134514
C           -3.84540157441758        1.51352459927564       -0.00151501406290
C           -2.69743480622391        0.72291392388541        0.01390959168801
C           -1.36945606001251        1.17912576951664        0.02695318597666
C           -0.51199254687134        0.07283956412364        0.01483971490202
C           -1.35045118790840       -1.10986297948481       -0.00434794117834
C           -0.76989440482238       -2.36501726329800       -0.01891213962068
C            0.60356244621351       -2.46785168904783       -0.01219858236070
C            1.46701454112747       -1.35584482718181        0.00487049819070
C            2.84264383901483       -1.64726614745263        0.01124822053923
C            3.95773041774160       -0.83110525840492        0.01366147402695
C            4.04620682208982        0.54522855985575        0.00956459815608
C            2.98775097807971        1.46747576868838        0.01274008900970
N            3.33312488489256        2.79050318573966        0.05823924133329
C            1.62463160194240        1.17763508036145        0.01878672299276
C            0.89785728465435       -0.01805118305421        0.01539273288272
C           -2.69862059040936       -0.69259903786726       -0.00717223239507
N           -3.80722227100738       -1.48616505484538        0.03574754714158
H           -1.10596398792704        2.22083120235880        0.04365773927094
H           -1.37590781173451       -3.26114943410217       -0.03127163977145
H            1.05157997886837       -3.45125474949053       -0.02096890814790
H            3.06483803444972       -2.70845804650342        0.01122114652429
H            4.90795552159220       -1.35246101166159        0.01462598439350
H            5.04206284597719        0.97055270027815        0.00751942063986
H            4.28569246966971        3.05525780510894       -0.11927152579448
H            2.62745038577195        3.48800058724959       -0.09944241229445
H            1.00102396452717        2.06341964412398        0.02581093352644
H           -4.69287563267139       -1.05176873085690       -0.16610512726292
H           -3.70704979536280       -2.44947530452047       -0.23427813036078
