25
 energy: -42.714026568058 gnorm: 0.000560251640 xtb: 6.6.1 (8d0f1dd)
N           -4.38410818695082       -0.79524116298753        0.60548373318506
C           -3.22332899298163       -0.28307053276307        0.13333862741761
C           -2.17638978834899       -1.18129650888984       -0.14727334687846
C           -0.81485914681401       -0.90789509369875       -0.30164910385366
C            0.08054880910736       -1.99147005740569       -0.41916108424175
C            1.44394453206107       -1.85393532749802       -0.28410026906820
C            1.96314580956095       -0.59745542312721       -0.00982893533251
C            3.25999021094914       -0.06816414642292        0.19007822823557
N            4.43211094903029       -0.73653567289850        0.25996919063822
N            3.22373924382164        1.27870442167244        0.35895090842665
C            1.95631352252148        1.64951041732091        0.26321052006810
C            1.09373242446625        0.54951647249623        0.03639325024526
C           -0.27609484505196        0.45030151075591       -0.19097656945068
N           -0.96323545682156        1.57464181997927       -0.40948761463441
C           -2.24732874601649        1.75457536749273       -0.48660016590818
N           -3.27457200000999        1.03025760049336       -0.08873656602008
H           -5.15005781404975       -0.16413987304386        0.75787678257206
H           -4.51207409272982       -1.78149646847832        0.73338061532172
H           -2.44240300970034       -2.23193808675903       -0.09586725188185
H           -0.33986481697090       -2.97378424965383       -0.58409957681994
H            2.08582988266461       -2.72060675741198       -0.36789487812734
H            5.27162686369966       -0.18315845121915        0.25588775630013
H            4.47899837721294       -1.68298152959863       -0.07323364982302
H            1.67635509762645        2.68165637441521        0.35825378719667
H           -2.53354082497580        2.73655612383053       -0.86097984476635
