27
 energy: -51.765724261314 gnorm: 0.000834920851 xtb: 6.6.1 (8d0f1dd)
N            5.10396464816568        1.67598683080708       -0.49669750076492
C            4.15494375597024        1.06090336807733       -0.30518900308579
C            2.98218672622223        0.30630052000276       -0.07075899693757
C            3.16414465428679       -1.02200689255700        0.37424537001207
N            2.31059885044075       -1.99098578546246        0.41468883718092
C            1.00815185543548       -1.98104245122641        0.09175327046840
N            0.49302107370846       -3.17772461133059       -0.12164567196450
C            0.08784297984733       -0.86200379085712        0.06065966073104
C            0.46381544945624        0.53598216431309        0.04342033337915
C            1.77108585913425        0.98047005481492       -0.17413760528812
C           -0.56449302475480        1.54240769705240        0.11566025281076
N           -0.23545246376202        2.86589360624781        0.20461582369898
C           -1.92503327029751        1.20929819175265        0.06821197625919
C           -2.90182049673178        2.22221585186402        0.13567213908465
N           -3.66215324288639        3.07917771870765        0.20698105289884
C           -2.29357597343505       -0.13684578583623       -0.02756483549458
N           -3.48448382529748       -0.73095666886129       -0.11916252401786
C           -3.18949642971718       -2.03534350169965       -0.16411441601585
N           -1.90105930673328       -2.35669065331327       -0.11484314277801
C           -1.26448796988060       -1.15512180191046       -0.01930119952125
H            4.16545646816345       -1.29887568982433        0.69372741177497
H           -0.55024598875650       -3.23980222289337       -0.20803997095257
H            1.09952190584122       -3.97824613791373       -0.03715542130250
H            1.87705547796939        2.02617007945960       -0.44010431327534
H            0.64447322019203        3.15117473022322        0.59493431207989
H           -1.00246087433024        3.50854222237720        0.32630209396519
H           -3.95593558245001       -2.78331380011289       -0.24519793244520
