30
 energy: -54.932282476641 gnorm: 0.000808901645 xtb: 6.6.1 (8d0f1dd)
N           -5.55664502867348        1.92746674464094        0.00509442398383
C           -4.54788368122012        1.37185484138768        0.00312783689407
C           -3.32660818256014        0.68010145523986       -0.00144470757521
C           -2.17519110188284        1.47805594289145       -0.00749135847864
N           -0.90350173944932        1.20642472970022       -0.00920168428393
C           -0.30564308657772       -0.01450301357398       -0.00584826065787
C           -0.91266906908092       -1.33783227930685       -0.00462840495568
C           -2.29008979956680       -1.60265488397801       -0.00322569961841
C           -3.38409944001640       -0.74682689578070        0.00002237430685
N           -4.61550830977911       -1.30584309802282        0.00532934334060
N           -0.16378913340864       -2.45591208836039       -0.00327052489966
C            1.15496215261230       -2.41357023307229       -0.00079330030662
C            1.85276863346509       -1.22351021988000        0.00071126884414
C            3.22711360844517       -0.85509574317906        0.00684039443209
N            4.27977181808417       -1.69208747273654       -0.01266549018398
C            3.30239073470713        0.55992033370086        0.00494732219237
C            4.48482530984273        1.29684532716019        0.01653603555026
N            5.46834234179568        1.89459571406164        0.03044382824171
C            1.99033298746282        1.09125026737075       -0.00157823514109
N            1.59156152554680        2.36146744753102       -0.00340087748156
C            1.08011933514287       -0.00924868487081       -0.00292628058208
H           -2.37163550732267        2.55028295034079       -0.01050685355268
H           -2.51609079212959       -2.66182476137355       -0.00231203770785
H           -4.71600634801821       -2.30470605167844        0.00367922111287
H           -5.43728434871120       -0.72601028045682        0.00573267585255
H            1.64406774226645       -3.38114037823152       -0.00050531550048
H            5.21168848088236       -1.32269907060749        0.06549020116415
H            4.13694744192978       -2.68171289916773        0.07715803002211
H            0.58228882640012        2.48780118271779       -0.00898622337616
H            2.24506889761377        3.12511981903375       -0.00606141373564
