31
 energy: -49.839959545862 gnorm: 0.000650681427 xtb: 6.6.1 (8d0f1dd)
N           -5.28506028558086       -0.68734669421034       -0.14654352651022
C           -4.15895501269729       -0.45023756420094       -0.06146069922583
C           -2.79026126708819       -0.15709084081642        0.00773346923942
C           -2.44006323933151        1.21184832487483        0.02031359275520
N           -3.47485137941447        2.10465647850734        0.05451054608826
C           -1.15928361113114        1.75704253357567        0.03616130714245
C            0.12554455765365        1.20465813471556        0.03409840844388
C            1.19004232009847        2.12978428825118        0.03640509927452
C            2.51540162444054        1.76125775644260        0.02220126029353
C            2.83764013489214        0.41527959465815        0.00465673066910
C            4.07811907032946       -0.26894094947079       -0.01278000990279
N            5.31619566335089        0.30610999381874       -0.08126691893667
C            3.80305870375649       -1.64756478418580       -0.02199013183809
C            2.43441168455962       -1.83551239260160       -0.00562971415872
C            1.79038985759302       -0.57244061860062        0.01116566758159
C            0.43280391780705       -0.21741175545803        0.02946731679186
C           -0.52081264696083       -1.24695263456796        0.05013694654074
C           -1.90578509247044       -1.26802376052440        0.04933693968778
N           -2.49606794949517       -2.50037526157743        0.12480694471775
H           -4.41469506339492        1.77823122041592       -0.09231130451122
H           -3.28772901278762        3.07859153740433       -0.10177996308194
H           -1.16518453117727        2.84312582445036        0.04496668577770
H            0.94206723219800        3.18193332402640        0.04777961363674
H            3.28424547157361        2.52301100673881        0.02035630466511
H            5.39055925375549        1.27448130783030        0.18180306804555
H            6.10567709774942       -0.27338623432763        0.15052405747549
H            4.54689955760858       -2.42408131391819       -0.03729241787426
H            1.95894219705351       -2.79967895612502       -0.00529200484546
H           -0.08452603597491       -2.23818437813249        0.06974602189968
H           -1.93185405416068       -3.31899466036781       -0.01590492466251
H           -3.48670109235459       -2.58431178562472       -0.02629937547863
