31
 energy: -59.461839025087 gnorm: 0.000799197377 xtb: 6.6.1 (8d0f1dd)
N            5.18452255853814        0.02650288267723       -0.41921983032252
C            4.10274379624718        0.39216390779016       -0.29016614910529
C            2.79809271351297        0.86529716779194       -0.12708012387708
C            2.42613492474846        2.20636719852394       -0.00627304520806
C            1.03138967751861        2.29917410006996        0.14092701063501
C            0.34848278531267        3.50879058990085        0.26523212238437
N           -0.18987286044208        4.52170394318057        0.36438670390938
C            0.49962757300657        0.98695213411644        0.12351260917420
C            1.61816622504200        0.08873346688783       -0.05894986377843
C            1.39797107918734       -1.28296850048822       -0.15826636255012
C            2.45794655326448       -2.18356309423592       -0.39450114117098
N            3.25507125784881       -2.98258798242071       -0.60446163452502
C            0.09523409446632       -1.80193910279108       -0.02387758345476
N           -0.07979411998296       -3.18449115847506       -0.04463462429879
C           -0.99806790914169       -0.93657737713680        0.17257481257548
C           -2.30111759236810       -1.47840835112680        0.53030968586891
N           -2.35348741254980       -2.56767572821103        1.30546021655463
N           -3.45697897878578       -1.03470097657325        0.09305649379461
C           -3.71115353553797        0.17066477411205       -0.38465626723477
N           -4.76080126285951        0.31693843184493       -1.20185022126098
N           -3.12459477612840        1.29970855580614        0.03635919942090
C           -1.88259973831824        1.40949037232804        0.38089911269557
C           -0.80956961960534        0.48626368471670        0.19890764532201
H            3.10107622806018        3.04289798613127       -0.02130243399075
H           -0.91156485254618       -3.51261184864847       -0.51318981028931
H            0.74955525177024       -3.68574628092490       -0.33588228943364
H           -3.25458653621184       -2.93031116318778        1.56722652691287
H           -1.50841698873518       -3.01267164250174        1.62327100099676
H           -5.06044407171433        1.24657659833603       -1.43898925302041
H           -5.32797817384325       -0.47766175461214       -1.43774657344578
H           -1.61991894375392        2.39006666291967        0.76236602952010
