27
 energy: -47.760089075042 gnorm: 0.000432671733 xtb: 6.6.1 (8d0f1dd)
N            5.22619182823371       -0.10722557432937       -0.68761198204543
C            4.10182992258802        0.01713071938968       -0.48293171504338
C            2.72493372581153        0.12596871694889       -0.21634132596845
C            2.12296263253249        1.36665940024840       -0.35516422475901
C            0.80377079666325        1.72611837701452       -0.11701418375404
C           -0.32266562862771        0.92676218154656        0.09348000781919
C           -1.58306002089558        1.56528486799175        0.22854123779153
C           -1.64311381661873        2.96279374751554        0.40501905822650
N           -1.71927935915476        4.09859888425475        0.55838293827950
C           -2.79243369539377        0.87054344006583        0.15910017710180
C           -2.77447821258921       -0.49175630233130       -0.05230445066613
C           -3.80114092218925       -1.45304888151052       -0.17471299904590
C           -3.20728399247102       -2.70210950891052       -0.30859575519495
C           -1.82058679270624       -2.56526722290560       -0.26272802938873
C           -1.51687651625635       -1.19866334469723       -0.10898801971113
C           -0.29096953437809       -0.54356221160865        0.04409211744772
N            0.77618661156678       -1.30740437076293        0.22022995680047
C            2.05775980242792       -1.06376933216415        0.24827891642273
N            2.82539295458731       -2.07628773793654        0.69993983590237
H            2.78484413390912        2.17273662801967       -0.64962930570425
H            0.60315789147129        2.78949003999598       -0.18259612819808
H           -3.72204277729565        1.41500874337338        0.24899695073183
H           -4.85510822227800       -1.24550117440222       -0.15795305600406
H           -3.73456298493738       -3.63127972037030       -0.42777822435662
H           -1.09917055854292       -3.35646946510029       -0.34041683137766
H            2.37284706503360       -2.93450940529173        0.96201791327568
H            3.82878526260560       -2.02921151713826        0.65776410162494
