21
 energy: -39.824918985008 gnorm: 0.000423301059 xtb: 6.6.1 (8d0f1dd)
N            3.71267356728887        0.57953619688846        0.90277815946695
C            2.72471449648584        0.14704999783883        0.10762922151042
N            2.87981479156554       -1.07458988708983       -0.41742523554660
C            1.84686066767310       -1.76171968181002       -0.84847886079984
N            0.58485646968594       -1.61021056732907       -0.54072704831423
C           -0.06466982564837       -0.51043311673563       -0.25342671492656
C            0.53761477974535        0.84342871315683       -0.51348103807539
N           -0.21218756975561        1.87075397901248       -0.89039601820891
C           -1.50922077147632        1.83976384928670       -0.67939042743190
C           -2.11332961766218        0.79807854015459        0.01968081313627
C           -3.42247685993530        0.49227531294440        0.42838002057655
N           -3.52887439647379       -0.77722976139567        0.83301701866002
C           -2.33074368222066       -1.34889543683435        0.69687109115179
C           -1.37454247274532       -0.43424390858265        0.21817414465705
N            1.78469174738145        1.04693503879870       -0.18060159926442
H            3.71956605011832        1.53992798905550        1.19808239003906
H            4.51610342456824       -0.00748221054141        1.04200231249678
H            2.08390603326291       -2.66609247218261       -1.39933728779708
H           -2.07625540141862        2.67397843196489       -1.07237683183443
H           -4.27678700815188        1.14392518381827        0.44073024860024
H           -2.18214999268760       -2.38583399511832        0.93353128890396
