31
 energy: -60.235611093732 gnorm: 0.000865963302 xtb: 6.6.1 (8d0f1dd)
N            5.16810061246371       -2.27380230506297       -0.90138403226512
C            4.26097403283448       -1.62907983738276       -0.62416952146569
C            3.13038706203897       -0.84800804242099       -0.28002669312885
C            3.37575815142664        0.49438926341692        0.01399702621734
C            2.42934114582169        1.47017490026821        0.28725690769541
C            2.93666913448788        2.76085259342854        0.58544969295663
N            3.36174089910932        3.79377744951762        0.84185136573731
C            1.02735814735961        1.36219969195309        0.22473895310011
C            0.19322862026764        0.26894864569583        0.07448459704538
C            0.62359024396129       -1.15155303889206        0.06202203712771
C            1.92295882430647       -1.55528614657032       -0.20125250874498
C           -0.35886730680496       -2.17458499246076        0.21982055218267
N            0.00151942125810       -3.48012959168205        0.37952741876448
C           -1.73704750388870       -1.88115586705592        0.15910659385129
C           -2.67980972869455       -2.92070569788550        0.29072906126684
N           -3.40999358860662       -3.79718204366129        0.41669275537444
C           -2.16234248177287       -0.56759382157598       -0.01913970992298
N           -3.41598335196757       -0.11848273091463       -0.11773743310507
C           -3.32721501952061        1.21465346877958       -0.20671561331932
N           -4.40838723258019        1.98891901721308       -0.33012780260917
C           -1.96615426060045        1.67559063767484       -0.15314391020928
C           -1.60942867545385        3.01518023245125       -0.23460020376057
N           -1.37715022744303        4.14109774823077       -0.30838446790852
C           -1.18719080319853        0.51244585484764       -0.04003040249532
H            4.41378877064427        0.80709765751284        0.01103435067850
H            0.51547699082052        2.31497089765964        0.31146818189941
H            2.04814533244526       -2.61388889940897       -0.40338127769186
H           -0.74170078365957       -4.14398584866237        0.52781625353791
H            0.90282464301954       -3.72649121810269        0.74649117790527
H           -5.31315192625095        1.55415068472010       -0.37094022074501
H           -4.31957251202298        2.98741153516825       -0.39902389317081
