21
 energy: -35.811274282535 gnorm: 0.000695136139 xtb: 6.6.1 (8d0f1dd)
C           -3.23926053712706        0.53230680329387        0.00027418542030
C           -2.10322408114834        1.32874844455567        0.00093493921570
C           -0.74135496045784        0.98231352825511        0.00122111605489
N            0.07058392348815        2.04871502467549        0.00188713321812
C            1.38223101637283        1.91206379360439        0.00218685750572
C            1.99509258904171        0.67188532247215        0.00181932851938
C            3.31161115028378        0.18152891516698        0.00195297084747
N            3.33043003773484       -1.15332929329678        0.00141151669527
C            2.06660293866898       -1.58444434253883        0.00091888153453
C            1.15439249030979       -0.51260586919724        0.00112195977754
C           -0.23850023339700       -0.39035266501350        0.00081883056534
C           -1.04631667614397       -1.54299587731203        0.00019354684399
C           -2.42241396618764       -1.67172406229778       -0.00021200599698
N           -3.39433632783732       -0.77470283468495       -0.00020895006291
H           -4.19005379339147        1.05895893200379        0.00013520074417
H           -2.26525605923999        2.39924087656196        0.00128337000494
H            1.94868786768342        2.83551536654286        0.00273684160121
H            4.22622437397318        0.74468476501037        0.00241314263282
H            1.86197188732422       -2.63952220573785        0.00043610532135
H           -0.49402811330088       -2.47456642402095        0.00001177375222
H           -2.80746975084945       -2.68824286844276       -0.00063909709509
