31
 energy: -54.625887766281 gnorm: 0.000668519824 xtb: 6.6.1 (8d0f1dd)
N            5.52689295789564        0.16109902809755       -0.30962312096812
C            4.43686386392001       -0.17635839720867       -0.16490147935037
C            3.09884031012844       -0.57070402826520        0.02088567249116
C            2.89062202069135       -1.81375699059085        0.64386793539616
N            1.83150468005947       -2.56256238851832        0.57024200874343
C            0.63604393051575       -2.24138800241638        0.11839944446596
C            0.00266173349062       -1.00156823924038        0.02528262419899
C            0.70552986766283        0.28036144243449        0.00134677367286
C            2.09565982612451        0.34743224189331       -0.37152319811238
N            2.49942811020916        1.39930561296105       -1.10615585648300
C           -0.02666105664962        1.46676384724082        0.14955247590067
N            0.61125221417800        2.71314997440271        0.22798399163404
C           -1.44091422958767        1.45769128964342        0.19775023836488
C           -2.13293373188300        2.66221168662361        0.41590753922099
N           -2.67525723204122        3.65697263335751        0.61225432343278
C           -2.14738489634350        0.27457253189210        0.01803603729388
C           -3.50905417804277       -0.00689285012525       -0.04199786579462
C           -3.64250541288814       -1.39347012787196       -0.15097672370872
N           -4.80827629475007       -2.07626439165136       -0.30386171294503
C           -2.35404773697143       -1.99330359091695       -0.14933615412517
C           -1.40772625606363       -0.98809893739901       -0.06683607940575
H            3.73803305134142       -2.27138788797723        1.14437405108600
H            0.01796774641662       -3.11319137795112       -0.06317043636602
H            3.47324753649589        1.50053525570151       -1.34267436803478
H            1.85416948833547        2.14486155359996       -1.31506334161758
H           -0.02294489491530        3.45842948943747        0.48668962831622
H            1.45183417294349        2.72784059804517        0.78926221755764
H           -4.30796869705585        0.70905704018256       -0.00710766614721
H           -4.80263164101990       -3.07072396183296       -0.15579293837523
H           -5.66915836647976       -1.59377384447102       -0.11097380741779
H           -2.18597794931775       -3.05216368527703       -0.20997396912324
