26
 energy: -38.430395709391 gnorm: 0.000467924061 xtb: 6.6.1 (8d0f1dd)
N            1.84388085232181       -2.50312747242719        0.24699105619261
C            2.03641581435229       -1.14239027230044        0.10134543987409
C            3.30129865199322       -0.53040779621009        0.03942075057067
C            3.15036660318999        0.83927210392367       -0.07476443266635
C            1.77435641786107        1.12982181886196       -0.07199196891581
C            1.07515934567252        2.31657639930446       -0.11421286778481
C           -0.30666876028744        2.28803722754405       -0.03959262762196
C           -1.04991751334135        1.10229278012414        0.01242238583340
C           -2.44679860777350        1.24893926752126        0.17566946082818
C           -3.47094068848086        0.33271456760472        0.23069031717099
C           -3.42628798479006       -1.04088267389522        0.01292364372623
C           -2.30273476494498       -1.79400597025729       -0.29029454550952
C           -0.97644904778468       -1.41283875249404       -0.31614950340469
C           -0.34896868996713       -0.17183234082489       -0.07069497397593
C            1.04918324781882       -0.12910273729335       -0.00082133592462
H            2.68353773095715       -3.00232020232120        0.50594211087708
H            1.04176898025039       -2.76906893768405        0.80130878206875
H            4.23571134809565       -1.06202390077562        0.08989800469302
H            3.94222607151142        1.56301828136342       -0.13442439935706
H            1.59576532672778        3.26211374275512       -0.17454886081514
H           -0.84550182123757        3.22509230702290       -0.02300270019347
H           -2.75655680417623        2.28005386899168        0.30988427388415
H           -4.45455928799576        0.74272148381519        0.42891964150271
H           -4.37083842496961       -1.56774837851520        0.04881458823412
H           -2.48731050574204       -2.83811153747407       -0.51782891487862
H           -0.28983845306289       -2.19585847626006       -0.60719088541286
