31
 energy: -61.023717664221 gnorm: 0.000629587527 xtb: 6.6.1 (8d0f1dd)
N            6.13793030894036       -1.07914874816451        1.00211888189239
C            5.10524072733266       -0.65605956871457        0.73725618859323
C            3.84263774047473       -0.13378048555571        0.41412851868664
C            3.58150038975600        1.18111483976322        0.01974377092136
C            2.18935201521776        1.30409964568795       -0.14906103902646
C            1.39873334727917        2.36944259679812       -0.52186614863795
C            0.00975125349210        2.22580259093052       -0.46676663076989
C           -0.76056384436757        3.33794344853684       -0.87870701215934
N           -1.30187877742127        4.24212369483477       -1.33133279408197
C           -0.61216741701626        1.01301809563249       -0.09100258578681
C           -1.95832647250484        1.04889163066566        0.34371002906711
C           -2.48210887104335        2.30277525242955        0.76242027199804
N           -2.95498681700175        3.23919874826209        1.22408809362141
C           -2.85391973031911        0.00692185878343        0.55948433007233
C           -2.73924303710131       -1.33328780521875        0.22423928255131
C           -3.90976285967500       -2.10839411037139        0.40709236997276
N           -4.85126619642531       -2.74723710462965        0.55404689774291
C           -1.60422954791109       -2.01885198299169       -0.28881851131033
N           -1.79865804786835       -3.27862615175410       -0.72209329277694
C           -0.28410863654138       -1.49822121952466       -0.28535156248828
C            0.67456457324542       -2.45559967778509       -0.70361810526283
N            1.34885977619596       -3.28732673206974       -1.11965721358229
C            0.20544118177474       -0.19572789124931       -0.04430666270115
C            1.59125143390557        0.00870561474420        0.10647725846083
C            2.63476257233759       -0.85824756295341        0.46202690899952
H            4.30834860149122        1.95963906775340       -0.11458072533449
H            1.82457176115445        3.32175188068969       -0.80165953862044
H           -3.81019031094696        0.29893483635710        0.97997564490998
H           -2.71624143383272       -3.69119346624594       -0.67748383288914
H           -1.02817450264443       -3.83972685447610       -1.04679538809055
H            2.55729503272110       -1.87952858217474        0.78302891862886
