28
 energy: -46.666389944957 gnorm: 0.000467406659 xtb: 6.6.1 (8d0f1dd)
N            4.64588475157452       -1.42217609809124       -0.21765200566128
C            3.68057972902248       -0.79582779082316       -0.15328195796602
C            2.53328378484983       -0.01654272802510       -0.08667485448166
C            2.50626841577531        1.41354167817263       -0.06406800471965
N            3.61990160420470        2.19590170740281       -0.05290386982649
C            1.18437996497610        1.83985717823351        0.01320150328895
C            0.34859889858236        0.70648122016231        0.03959761285564
C            1.20354096211737       -0.46380545136182       -0.03434078457782
C            0.65510480703706       -1.73116012403379        0.03497026025857
C           -0.72120296491360       -1.90339105744996        0.11369792427827
N           -1.21515310139869       -3.20182852386569        0.15680129120977
C           -1.60870854120493       -0.78886953278661        0.04286834304044
C           -2.97424899712993       -1.04124032960590       -0.08365286628484
C           -4.05007176948481       -0.17549900387079       -0.25720387987323
C           -4.02034057603971        1.20976499241303       -0.25247592207672
N           -3.05735042131404        2.01049553478739        0.16032137548088
C           -1.80798969210146        1.71616203679769        0.38865115844970
C           -1.03468297988401        0.56504566365466        0.11328425709418
H            3.51423630346917        3.17495044024035       -0.25564450965769
H            4.49372538421165        1.76908904882801       -0.31207866428593
H            0.87336919392662        2.86752831005139        0.02235535642429
H            1.30157799988660       -2.59867712427667        0.03581956552973
H           -2.02019914999786       -3.36392823388644        0.74090003872469
H           -0.49824761905953       -3.90044891087966        0.28349328072712
H           -3.24240333135149       -2.08692983115856       -0.16330823400207
H           -5.00896814104976       -0.63654181536741       -0.45453670645066
H           -4.91955276315245        1.73948057778270       -0.55080169316855
H           -1.25123281525069        2.55299784665636        0.80201999896986
