32
 energy: -59.972643727916 gnorm: 0.000887214761 xtb: 6.6.1 (8d0f1dd)
N            5.45205907598757       -1.76789540064342       -0.14155190788708
C            4.46882122578883       -1.17422831639218       -0.09308396907451
C            3.26932164830584       -0.42963219622541       -0.02683117720604
C            3.42965549792188        0.92026690218403        0.34973724506896
N            4.64269682310719        1.32796850725824        0.77156144029121
C            2.43355922963146        1.91121391908301        0.21033705199752
C            1.10768247227536        1.77003655701353       -0.06186439366242
C            0.27596106576892        0.62293995430553       -0.10691733532471
C            0.73222240633538       -0.73700698287900       -0.12700549226581
C           -0.20330336772431       -1.77377793932329        0.02497313652970
C           -1.57066150250285       -1.54987904873642        0.12254954495835
C           -2.42306643084051       -2.66017440329241        0.32357661606177
N           -3.05722904988658       -3.60085023772466        0.48569910388680
C           -2.05569081276029       -0.24828898066644        0.00694170250097
C           -3.36438227995030        0.28308716233799        0.00991807215092
C           -4.55914871002797       -0.43854356625204        0.09166963859568
N           -5.55427714652246       -1.00912756059589        0.15033720529062
C           -3.25305373861797        1.67146404587607       -0.09297324131653
C           -1.89683459310161        2.03072047294506       -0.15346026371111
C           -1.47994867539760        3.35843429013003       -0.25806081496328
N           -1.17215704890315        4.46520040540704       -0.34031819041252
C           -1.11671522785959        0.84545630636300       -0.10307567301739
C            2.09564212809135       -1.13591433468565       -0.36838116678024
N            2.28095144633137       -2.35293923761780       -0.91482792418164
H            5.41413239649800        0.68433555265192        0.83184145334976
H            4.80609884141158        2.29846316191408        0.97400306133478
H            2.78891411896990        2.92630192791150        0.33665477801563
H            0.56839378603496        2.70256635102430       -0.15677041693564
H            0.13371575549477       -2.79390316104828        0.13983382530849
H           -4.07514990927459        2.36331116418921       -0.12388754369406
H            1.50197169050642       -2.89859124175712       -1.23791006892981
H            3.21143234551039       -2.70841528965567       -1.06362205957652
