29
 energy: -51.225541059037 gnorm: 0.000883577344 xtb: 6.6.1 (8d0f1dd)
N            5.23025685592722        1.58429096274098       -0.49326419273148
C            4.28595026816156        0.94309683726935       -0.34961282139493
C            3.12873075877007        0.18593479767076       -0.17004993243769
C            3.04841397330058       -1.19658191866984       -0.00805168198333
C            1.70297609651255       -1.57219069885230        0.14583846982969
C            1.29954493726057       -2.89536455552437        0.31446039504188
N            0.99620398406632       -3.99905404699305        0.44995502456971
C            0.90413831493083       -0.39944866941237        0.08730186595361
C            1.80875626336161        0.70429460998939       -0.12053076290207
C            1.32398192317812        1.99523656460434       -0.24772465923941
C           -0.03116876450724        2.21417517568438       -0.11843747958300
C           -0.94254356194436        1.16608542616871        0.08920854625306
C           -2.32442449443092        1.50828979795524        0.33722947205989
N           -2.58698591670870        2.68949234012966        0.92437039132317
N           -3.39337723161321        0.84739536496857       -0.04574148457269
C           -3.54320644998214       -0.42530956172397       -0.33626468174390
N           -4.69822995015568       -0.75775088070070       -0.94251974991379
C           -2.65859583272792       -1.46758469137917        0.06356581768102
C           -1.33065486625705       -1.32432566353201        0.31496658685920
C           -0.48712777194403       -0.18712155313823        0.15347273450540
H            3.88191521510973       -1.87609404536030        0.00094891504882
H            2.00105481964443        2.81712372457371       -0.42949915312175
H           -0.40761623837270        3.22146380455444       -0.22483636363466
H           -3.54614841853592        2.94569071975654        1.08186007337075
H           -1.84864560278084        3.26964828195036        1.27858860595607
H           -4.90635736702858       -1.71353133239168       -1.16573937281543
H           -5.33496923938016       -0.03098623641858       -1.21737002924618
H           -3.08351787037770       -2.46043965355476        0.12296051049011
H           -0.80311608117649       -2.23336476736487        0.57101397507748
