30
 energy: -50.131178423123 gnorm: 0.000474443397 xtb: 6.6.1 (8d0f1dd)
N           -5.51742122126645        0.28266105271790       -0.06082363301553
C           -4.39358891235570        0.02169741392577       -0.05605833316525
C           -3.02495503397964       -0.26573848585044       -0.04096627663324
C           -2.65609629416779       -1.62202741324221       -0.04783516343694
C           -1.41102885781520       -2.18059322754336       -0.01409117801082
C           -0.12965318128627       -1.56213229084305        0.01583370558976
C            0.97941915999391       -2.41312514145343        0.04449029461301
C            2.29779955615031       -1.97555455394813        0.04725131858011
C            2.53288341328621       -0.62132219539876        0.01841744278130
C            3.72563059010162        0.17840530597475       -0.00802542325859
N            4.98753909195567       -0.31765821914991       -0.04698210711104
C            3.35919564367787        1.52106280076490       -0.05053784372160
C            1.96024251786896        1.60844725459377       -0.04156488640394
N            1.16894982435776        2.68640436998436       -0.04927175885999
C            1.42182608270658        0.27961347765208        0.00300916391491
C            0.09210211192187       -0.12867468330300        0.00883131497600
N           -0.81772148005725        0.87476925498471        0.02042733826929
C           -2.12917493697430        0.84503421441597        0.00707522281412
N           -2.70405617574958        2.07955376481463        0.01279619175082
H           -3.49260507032045       -2.31184567004701       -0.07529855953922
H           -1.38295922890492       -3.26378698590668       -0.01761041074201
H            0.79211837581007       -3.47808562756934        0.05821801201760
H            3.10200213851576       -2.69836726792357        0.06164652734819
H            5.12795749147296       -1.28531746104042        0.18467228689499
H            5.75670781788287        0.30885144441268        0.11500517927049
H            4.03862974196388        2.35312051822271       -0.08377002396398
H            1.53091260278124        3.61169036119540       -0.19564173404569
H            0.17803462545664        2.44362687862288       -0.09281206976491
H           -2.12493693347263        2.88387967309736        0.17421861508081
H           -3.70061357045411        2.16599218153933        0.11250761197168
