30
 energy: -55.720481470390 gnorm: 0.000721892247 xtb: 6.6.1 (8d0f1dd)
N            5.94157214437008       -0.96894709854057       -0.58653244955374
C            4.94542295903463       -0.43496363606178       -0.39005808185220
C            3.71055257606537        0.21428170564986       -0.14398226604890
C            3.76896177830091        1.58380647031491        0.05944390669869
C            2.70024624458852        2.45334806975836        0.26530100551706
C            1.35616445855583        2.15682835930027        0.24624706089231
C            0.65868143727620        0.94268431168475        0.12171709915307
C            1.25111678237894       -0.40817471124473        0.08741587767388
C            2.59418084666513       -0.65246341133161       -0.09467016642106
C            0.37432512744701       -1.54824345258203        0.16797259344982
N            0.88351846007802       -2.81560420778965        0.27164065796721
C           -1.01367083875603       -1.40191689606068        0.07303085231024
C           -1.84010951008452       -2.54234893675661        0.12466728540815
N           -2.48233467457229       -3.49212451601570        0.18706947407673
C           -1.58235689094130       -0.12253142449528       -0.03403578996456
C           -2.88080241282823        0.36874933388253       -0.12630126300277
C           -4.09896214312232       -0.29317242452646       -0.22598077239018
N           -5.14154405933127       -0.77105995501677       -0.31852920903814
C           -2.72900917740896        1.80540215783854       -0.10281724376580
N           -3.74330793172247        2.68180706702249       -0.15173521815083
N           -1.45891369449064        2.18253232839143       -0.00216903856334
C           -0.72489976039611        1.04278805169489        0.03457566126784
H            4.75897299461926        2.02368886183965        0.03670442559476
H            2.95983749748970        3.49400077556212        0.40692660987076
H            0.67769518495201        2.99822618453472        0.33136214055844
H            2.87200622923075       -1.68841081329094       -0.25257061192590
H            0.20812236187494       -3.55625526560551        0.38218566779239
H            1.76742583481933       -2.96642638944306        0.72452596224668
H           -4.68089656776323        2.35764235371122       -0.30875253814150
H           -3.53775308173063        3.66358406787363       -0.19143993165845
