29
 energy: -51.206685131623 gnorm: 0.000569434038 xtb: 6.6.1 (8d0f1dd)
N            5.33022231791967       -0.40589388829980       -0.00060928036492
C            4.18447230106478       -0.31816873264623        0.00131538893412
C            2.77568206916337       -0.23085008993178        0.00343964957500
C            2.25487053541048        1.05501133994461       -0.00165218226340
C            0.93524546347520        1.47990126269875        0.00178939828318
C            0.76334538455101        2.88908747816006        0.00021784476754
N            0.68325415273187        4.03338797379639       -0.00088258222433
C           -0.28449608903202        0.75173023221609        0.00578923779394
N           -1.34300407391830        1.54296483525543        0.01210763686733
C           -2.59362621329103        1.06388384480503        0.01130399693000
N           -3.56269139709757        1.99241799258686        0.02003302177857
C           -2.83662204350778       -0.31397748308078       -0.00114609103957
C           -3.99892069234185       -1.09375682543692       -0.00992974577020
C           -3.61216220540241       -2.43525727863146       -0.02018443614130
C           -2.22880514424189       -2.51723576385067       -0.01695309773785
C           -1.70390266022142       -1.20546138199495       -0.00545681650269
C           -0.38793932903128       -0.71009715908886        0.00194157056826
C            0.67654790333632       -1.61308983574822        0.00788463490352
C            2.05997944292270       -1.46267573392067        0.01083810347619
N            2.80294361868755       -2.59885386825017        0.02087668362602
H            2.99352885541279        1.85025528687669       -0.00730382469868
H           -3.29137236275587        2.96046619406642        0.03244411565406
H           -4.53112246754351        1.73155598488995        0.02656535387078
H           -5.01155131153079       -0.73231824934452       -0.00956396135314
H           -4.28445420720521       -3.27417606727141       -0.02931371177979
H           -1.66785407582565       -3.43392852606109       -0.02402380178047
H            0.36055833364306       -2.65011507523690        0.01062879461990
H            2.35632826180953       -3.49760650782442        0.02229187464695
H            3.80721571251832       -2.55307871297737        0.01841168426104
