30
 energy: -50.132684239438 gnorm: 0.000394559774 xtb: 6.6.1 (8d0f1dd)
N           -2.44513764367095       -3.20010511479323       -0.44238261422161
C           -2.30969564567206       -2.06419957285618       -0.28185990119608
C           -2.22331594262763       -0.69427851537969       -0.10225289686038
C           -3.36826632195336        0.15957564167808        0.00419743558407
N           -4.65718061752220       -0.26402770435267        0.02258961051955
N           -3.04504913575685        1.44169035653263        0.14814206534525
C           -1.69572815289954        1.48474206570824        0.14016909958426
C           -0.86740712160565        2.57861385244421        0.29798584063260
C            0.50113534392735        2.39852171356672        0.20788087148457
C            1.11441001209595        1.15260649824316        0.00915409850616
C            2.53502778820100        1.13438712668393       -0.21155923508624
N            3.11891654981524        2.32371181457678       -0.53613055612985
C            3.42270918965304        0.07494984110465       -0.06776749933747
C            3.20655301234789       -1.28043816632595        0.17536635029792
N            4.30343613838845       -2.06771512979605        0.33877923072709
C            1.95928380592997       -1.92651848988930        0.14720499450359
C            0.71953800159594       -1.36804486108917       -0.00780481804121
C            0.28458408734700       -0.03096579088374       -0.02477252939649
C           -1.11240265443082        0.17092023446929       -0.02315764180907
H           -4.85508995727134       -1.18831354515417       -0.32137492543308
H           -5.36261757010331        0.44259583523436       -0.09565815589555
H           -1.28379551413585        3.55739540069744        0.47845793472094
H            1.11875206934129        3.27237736939335        0.35559354399791
H            2.55147042320958        3.06778710327677       -0.89969342388574
H            4.09054556355877        2.32497402682635       -0.79408600332475
H            4.46887816638848        0.34932061148683       -0.16866685442036
H            5.21122027303383       -1.65574940190227        0.45607789875547
H            4.18800683241116       -3.03527086814419        0.58009656888693
H            1.99287045738620       -3.00500065037296        0.23866084122331
H           -0.08941196768835       -2.08645151938231       -0.05319122253051
