27
 energy: -46.953344715380 gnorm: 0.000681924155 xtb: 6.6.1 (8d0f1dd)
N            5.36765558782915        0.09925412943243       -0.16367457984175
C            4.24375158362041       -0.12907293301452       -0.07934063326608
C            2.86395876631479       -0.39479769715771        0.01920876127229
C            2.51313991671262       -1.70117537113062        0.41153386079456
N            1.38649376670981       -2.31776452633823        0.22773001029395
C            0.22444659944041       -1.80684790912807       -0.13689848195917
C           -0.25741476701224       -0.50548921858779       -0.03569459359138
C            0.56814834941558        0.69034611645364        0.06584348224797
C           -0.04633518711779        1.91640747107283        0.30418252498208
C           -1.42483933714752        2.08402794239915        0.41735859868709
C           -2.24655409316938        1.00564502281444        0.19450989219464
N           -3.59261034194460        0.94992266255318        0.19393086928122
C           -3.89736508084772       -0.33000282307861       -0.02933437607104
N           -5.18440325061789       -0.73336762400010       -0.15547467660223
C           -2.74828173127281       -1.16100932942653       -0.17382745850285
C           -1.66372578601277       -0.31507864694575       -0.04979427529538
C            1.97845038860684        0.67892751818946       -0.22348004486772
N            2.53063229770371        1.81738044253772       -0.68353433790495
H            3.30559926214101       -2.32129121074212        0.81954441848250
H           -0.49220807246273       -2.57104777171711       -0.41802692313634
H            0.56830870861562        2.79213298120254        0.46247571963741
H           -1.83916149008346        3.05195119512585        0.65150376717325
H           -5.88945495249187       -0.07080819089501        0.11801011793373
H           -5.39820256160860       -1.71104348245567       -0.06748284782601
H           -2.77161903346104       -2.22009765159170       -0.34263472492914
H            3.52381080688355        1.86371911445899       -0.84468863214509
H            1.96271151725955        2.62045019427148       -0.88560310354294
