27
 energy: -46.959599046855 gnorm: 0.000333350039 xtb: 6.6.1 (8d0f1dd)
N           -4.52826640720146        1.42158891919863       -0.40347063580187
C           -3.58985009943315        0.77730200899807       -0.24826770858083
C           -2.43529819029306       -0.01475033802699       -0.06820320191946
C           -2.62639631462636       -1.38784000619661       -0.14226234024407
N           -1.81364440908512       -2.34576428606926        0.23823594984339
C           -0.52348186784470       -2.29379702427541        0.41083290909939
C            0.42058154845035       -1.30599181541594        0.06220738957696
C            1.77149442350454       -1.74489165995574       -0.10775261684649
N            2.03798299645749       -3.10570938111475       -0.15423840584608
C            2.82309732891619       -0.85091471437598       -0.17944353985284
C            2.57221740260327        0.51182671146826       -0.08378226587065
C            3.36028790389782        1.66487086119300       -0.09005850271537
C            2.47110337410596        2.72837759254382        0.03033090392998
N            1.19518631942862        2.33506368016002        0.11627569326821
C            1.20587474515926        0.97915828896559        0.04391646619643
C            0.11584571151652        0.10702473760834        0.06191423443326
C           -1.20469030650219        0.68621978786725        0.14251553245099
N           -1.26594779536816        1.99758473248969        0.31368841707115
H           -3.60735454035581       -1.73945006758656       -0.44811245236919
H           -0.12252697882541       -3.20629152566173        0.84433981514333
H            1.35453947650667       -3.69338112321952       -0.60258832820351
H            2.98715921339660       -3.33294139658683       -0.40747960382600
H            3.83409949407609       -1.21672099989042       -0.29559285598208
H            4.42756374308807        1.72564243386545       -0.17073102029371
H            2.70807278508770        3.77744599071233        0.06412106974930
H           -0.33884613155844        2.50854476786508        0.29967761798555
H           -2.15966671660054        2.46479416534028        0.29506226310455
