33
 energy: -57.290646517731 gnorm: 0.000895708406 xtb: 6.6.1 (8d0f1dd)
N            2.62203242714381       -3.39423644422324       -0.17220268198756
C            2.27359704082419       -2.29725876584102       -0.12450071826606
C            1.94466238861706       -0.93086533407476       -0.06573591494646
C            3.02763663675721       -0.02787167970426       -0.26123754114706
N            4.18772629272742       -0.54667719979712       -0.73620728061886
N            3.09635517853060        1.25886816845911        0.00725148877830
C            2.09346073512314        2.06557930727213        0.35656431914705
N            2.53395545719738        3.31985192914442        0.69379163721878
C            0.71870151822043        1.86604579296581        0.29947006137677
C           -0.01042404761765        0.68642501577306        0.08439034671934
C            0.57239595711669       -0.65311032024378        0.12458407877068
N           -0.17085875607306       -1.73756894239113        0.31832998890248
C           -1.50149237630919       -1.68426274897802        0.34412523464292
N           -2.13442781967926       -2.87175440844416        0.59717671929053
C           -2.17381667132710       -0.50453461138094        0.04306237218530
C           -3.53545448445599       -0.16881523614907       -0.14781420325589
N           -4.59337284668563       -1.04635594022317       -0.09671844260113
C           -3.61272073082742        1.20775788540893       -0.37511640215886
C           -2.32984468271899        1.75433444477173       -0.34075386163410
N           -2.03229621354593        3.08080149859843       -0.54983191075719
C           -1.39977801615187        0.70603492514628       -0.07053114814875
H            4.30175706284354       -1.54271798487346       -0.81056505656599
H            4.99455629688935        0.05158158485530       -0.74524589414653
H            3.52128875755785        3.40483533168585        0.86526732517614
H            1.92078225840131        3.92741353285940        1.20858138268321
H            0.12613439170682        2.74278285520773        0.52480888631813
H           -3.02572466372247       -2.82473710249011        1.06424905050630
H           -1.50875326942732       -3.59854475707678        0.91156881361725
H           -5.46031715995777       -0.68530832375577       -0.46660777663257
H           -4.38571611505110       -1.98747902160849       -0.39568388355697
H           -4.51624302543857        1.75648214864235       -0.57444871638955
H           -1.13629708688594        3.26182088852838       -0.97859618695395
H           -2.78894610608429        3.61897002313908       -0.94717178316672
