27
 energy: -47.759366919713 gnorm: 0.000966739741 xtb: 6.6.1 (8d0f1dd)
N            5.94682427078242        1.71012292446719       -0.00265830909088
C            4.94203368404400        1.15414960013608       -0.00182104514764
C            3.71607082948942        0.47446858986026       -0.00069394735481
C            3.56387605113673       -0.92562934800313        0.00150442974911
C            2.19531240980948       -1.19521165857220        0.00201987263889
C            1.44757309523332       -2.36793552720608        0.00394214095570
N            0.13701674502192       -2.37290134019900        0.00404137549791
C           -0.56846120638977       -1.22018003037573        0.00226956469057
C           -1.93844032735294       -1.46207139124943        0.00275873208073
C           -3.06500344594156       -0.63228241671930        0.00173133974040
N           -4.27280322010238       -1.24261059243081        0.00265466723209
C           -3.04400683195703        0.78421304431298       -0.00023885326218
C           -4.29739268291571        1.43496149814834        0.00131754565444
N           -5.32612210512192        1.94620448592419       -0.00371998709141
C           -1.92869980547002        1.62620919283994       -0.00176451245978
C           -0.58831454010040        1.32407096420175       -0.00166576516593
C            0.08132225406762        0.08911670977443        0.00016314262560
C            1.48427980642844        0.06835698656097        0.00007857383243
C            2.45481319731009        1.08482054432309       -0.00155569373730
H            4.36142081563457       -1.64467893411467        0.00257428287185
H            1.91997191709761       -3.34313393388493        0.00547421764020
H           -2.15821510949874       -2.52420848952921        0.00440880849715
H           -5.12083238817012       -0.70212380641002        0.00264310376733
H           -4.33199598083436       -2.24478318093835        0.00477946147198
H           -2.17181203309631        2.68297503954797       -0.00306752005156
H            0.06980310658103        2.18303964968790       -0.00302758044548
H            2.29357672451458        2.14692773954778       -0.00319182413944
