26
 energy: -42.429196570800 gnorm: 0.000787587913 xtb: 6.6.1 (8d0f1dd)
N            2.68173997525254       -1.62641704353776       -0.69856263735988
C            2.12436681129142       -0.49013968379282       -0.23721996615404
C            3.04276273855977        0.57141637043721       -0.06153395238667
C            2.85298329549867        1.89962331184771        0.21255245294625
C            1.64727507653697        2.60034144161776        0.25511024758103
C            0.39338741700483        2.07467631093248        0.07944222649065
C           -0.05554732077423        0.74437334544907       -0.00110160688584
C            0.71820892864232       -0.48551133558190        0.02361104481995
C            0.01958979287895       -1.71550347962135        0.19243932675231
N            0.73521461356864       -2.92767889013681        0.39499095038948
C           -1.36379863180670       -1.80407594081452        0.16375240374675
C           -2.11896703228388       -0.66138626079921       -0.02363521385018
N           -3.44660089581124       -0.44942087046349       -0.08273329189001
C           -3.53875294120016        0.87922743338468       -0.16277058698223
N           -2.39846636649166        1.57363733827375       -0.15123016798502
C           -1.45003916145060        0.61605339850950       -0.07727730255418
H            2.10748792959650       -2.45137745071024       -0.80990270033717
H            3.66063166423883       -1.65301710256797       -0.92080923571632
H            4.07749167594352        0.26249919360547       -0.16925963289021
H            3.75261060337843        2.48718468038067        0.34860606642838
H            1.71588558523976        3.66999152423678        0.39954829695178
H           -0.43219511969358        2.77663789503383        0.04955586688984
H            1.39362384775201       -2.86746567362898        1.16330865186859
H            0.09242692506605       -3.69331033763843        0.55883169298595
H           -1.84672472460634       -2.76231260988297        0.29727216150986
H           -4.49214230723067        1.37215996856740       -0.22889862246908
