29
 energy: -55.212477409364 gnorm: 0.000668781219 xtb: 6.6.1 (8d0f1dd)
N           -5.63045755068396       -1.72251184804372       -0.35100179837363
C           -4.57575936526540       -1.26571822434378       -0.28357101725071
C           -3.30731371322866       -0.67504005373341       -0.20147313409720
C           -2.19217123371561       -1.49448133319188       -0.38236262389704
N           -0.91364630493374       -1.25517493492469       -0.25402245173716
C           -0.32314672044677       -0.04445771948515       -0.13367824704404
C           -0.94895260916269        1.28555486276026       -0.20526456374797
N           -0.22364986504716        2.37982037345101       -0.42606423592901
C            1.09796756774141        2.35686161151627       -0.40741508835858
C            1.80121238044246        1.21204665512599       -0.09775723810084
C            3.18459333032746        0.87598646150654        0.02186615719097
N            4.21322233032534        1.73510652307755       -0.00350786476547
C            3.28553809589722       -0.52820991491547        0.16666097930835
C            4.47942745205515       -1.23671801273579        0.29225393624726
N            5.47018834058174       -1.81435177722266        0.38478014045555
C            1.98340687736074       -1.08697744974810        0.14376631133388
N            1.60485142586043       -2.36017499263328        0.22171562929954
C            1.05501998266924       -0.01127644835163        0.00441464756995
N           -2.22987769999409        1.53559518392540        0.04799106017670
C           -3.24617367743597        0.71703585242948        0.16194197344208
N           -4.37111780643519        1.28239297541912        0.63661313024869
H           -2.40683740931212       -2.53719415152339       -0.61067839439969
H            1.57794772431376        3.30171299096382       -0.63293357649571
H            5.15793532880887        1.39393190983518        0.04493377329152
H            4.05108431562365        2.71611076169994       -0.14293773666050
H            2.27343251791269       -3.11168169165666        0.22552115055205
H            0.61062273203643       -2.51731023817649        0.07665212934994
H           -5.23460897952268        0.76836743145882        0.67769440772242
H           -4.35327129847265        2.26833007191477        0.83263843526785
