28
 energy: -46.672414339248 gnorm: 0.000695226302 xtb: 6.6.1 (8d0f1dd)
N            5.16426134831047        1.03082616079635        0.02570845942934
C            4.15138243441580        0.48621666307590       -0.01445480952640
C            2.94307883819692       -0.20594730887846       -0.05532393258090
C            2.79143118498996       -1.59946415184681       -0.21549800169745
C            1.45136915182655       -1.93588954471036       -0.19287775323848
C            0.69153554936565       -0.75550855017642       -0.03045642466947
C            1.65082206086260        0.34219786679800        0.02187501148442
N            1.28322982213098        1.61356861871575        0.08866161511179
C            0.00677332311349        1.87276938259875        0.10673263613189
C           -1.04756464236895        0.91493029209376        0.10318904802504
C           -2.38154424956145        1.42684543276212        0.09180949087130
N           -2.59671947954214        2.68485637512209        0.54087157943481
C           -3.49376582547700        0.78760125986900       -0.48050107404353
C           -3.69121537766252       -0.55505489607331       -0.69610888421890
C           -2.90316652208489       -1.60705788484955       -0.25249325832166
C           -1.60975765844501       -1.56166069619388        0.24830989326079
N           -1.13369221711561       -2.66721770573443        0.85459397956258
C           -0.67539251919882       -0.46625699579749        0.07549109349150
H            3.60811616255479       -2.28911836576042       -0.33741704238972
H            1.07780609340670       -2.92904406710081       -0.37182835167702
H           -0.22342021965982        2.92890105550172        0.05275521985540
H           -1.86415182295222        3.22095462531759        0.96841689386150
H           -3.50003052926282        3.10910627266823        0.42390763865368
H           -4.32430265125813        1.44102364069146       -0.72041834930675
H           -4.63448670178112       -0.83087177806833       -1.14950010038295
H           -3.35726235924234       -2.59039824251518       -0.28128264921281
H           -0.20366612714257       -2.66703669343045        1.23743019730529
H           -1.72257795241941       -3.47132128478045        0.97869395688799
