26
 energy: -42.428564129499 gnorm: 0.000341460649 xtb: 6.6.1 (8d0f1dd)
N            2.24381142980357       -2.45055024234610       -0.21269638679044
C            1.26461085381120       -1.50465177837713       -0.12382512776209
C           -0.08969076922571       -1.87687809496209       -0.12857013727270
C           -1.14487789950096       -0.97889660521751       -0.04544631317242
C           -2.44533551136377       -1.50993871596942        0.15800620013363
C           -3.65355384466572       -0.86954187696723        0.27832034652234
C           -3.94497349317615        0.47932201975343        0.06508002907263
C           -3.03172100521414        1.45860981308712       -0.30159092861232
N           -1.72243360435683        1.45205025914977       -0.29880133372618
C           -0.86528512669244        0.46227953805036       -0.08585188281039
C            0.48510064049067        0.81746225299151        0.02651626913890
C            1.13492839262853        2.06296968542342        0.08871965824116
N            2.45875984252058        1.93320090671612        0.16574030657804
C            2.73297391013958        0.61488839943286        0.14496796026062
N            4.03158670815629        0.16587005071783        0.18659770673894
C            1.55204313358704       -0.15374637351061        0.04174416754338
H            3.15468655185337       -2.13792663044225       -0.50592336371458
H            1.97111792376958       -3.36901211624440       -0.52375125526975
H           -0.31779590534707       -2.93394532219749       -0.18426149242156
H           -2.46642860940840       -2.58444936574251        0.30384333104957
H           -4.50151103096151       -1.50164972462593        0.51600941532046
H           -4.98151999111325        0.77860764449805        0.14045799111281
H           -3.44002022443414        2.42424029281008       -0.59286934898476
H            0.67805924343432        3.03395407009367        0.09330957804183
H            4.19229349407045       -0.66396043467642        0.73870558707866
H            4.68376253189531        0.91270678035480        0.38136322150440
