31
 energy: -53.869444017318 gnorm: 0.000710944446 xtb: 6.6.1 (8d0f1dd)
N           -3.10760444244054       -2.81646709936053        0.06506517668078
C           -2.89552224932742       -1.68125442396456        0.10585821310253
C           -2.64805709331602       -0.31755671366287        0.13850605809661
C           -3.63387740025347        0.65865977617159        0.39108854512175
C           -3.05370176121036        1.91240757670609        0.43546223125930
C           -1.67503193785434        1.76175698111593        0.23826388708387
C           -0.62752201505520        2.67488805934445        0.24860018958270
C            0.67381884034286        2.25372872188826        0.07498142167015
N            1.72324437041837        3.21021563232118        0.10016724569666
C            0.97189958367025        0.88199095571487       -0.14075247197875
C            2.33663433370739        0.46460433527644       -0.39307800685720
N            3.14052181375778        1.27637131998653       -1.09644616278340
N            2.90238460971564       -0.62108120427341        0.09193638746433
C            2.26321498180384       -1.71304093063072        0.48571450981774
N            2.88478931679364       -2.50764358997934        1.37539549493018
N            1.15771616771536       -2.18244103949443       -0.07484492821636
C            0.19344788440900       -1.44859366679100       -0.57245642719670
N           -0.60549719265734       -2.02713012899048       -1.47490111643466
C           -0.08695419821890       -0.06848267364689       -0.18758183046502
C           -1.39907901564916        0.35643437850544        0.02501738505373
H           -4.67776375279350        0.43666370869119        0.52999523398201
H           -3.56408616508023        2.84074521264520        0.61505028362239
H           -0.83152547303172        3.72497965309011        0.41413515592203
H            1.35908983861330        4.12570823934570        0.33739879854407
H            2.46105456270691        2.96251003568584        0.75031563839081
H            2.82464393557912        2.20985488238065       -1.31219795581305
H            4.10959706205711        1.02466804218675       -1.19040025319991
H            2.51055831743590       -3.42411980358451        1.54279422919484
H            3.81950741906809       -2.28362838187138        1.66360339374718
H           -1.48248801120990       -1.59178663293467       -1.71064158950545
H           -0.53227345219723       -3.02405049287171       -1.60059848161293
