30
 energy: -49.324837157313 gnorm: 0.000626082366 xtb: 6.6.1 (8d0f1dd)
N           -4.04468598910522        1.84417958306317        0.09344576422375
C           -2.93788199078749        1.03200455541248        0.06195256459059
C           -3.16691830882918       -0.34133338617173        0.02677624794095
C           -2.21498006017779       -1.36278877163622       -0.07884510500045
N           -2.70324754439818       -2.65115378864162       -0.11821786542351
N           -0.89765149276017       -1.32421614285686       -0.07991469054857
C           -0.06945794017454       -0.27125541215784       -0.03107960493209
C           -0.40404410250051        1.15892071983138       -0.05165547016861
C           -1.69973148265764        1.67551084243157       -0.00523511881626
N            0.54450685187637        2.10300759741085       -0.10123071624152
C            1.84190924771655        1.80571570955777       -0.07287497920374
N            2.69162371076849        2.87033508895524       -0.07226499141820
C            2.29112275673695        0.48577863000068        0.01716052973359
C            3.54319599436364       -0.13989336833136        0.11151811074611
C            3.35219646568048       -1.51695310332626        0.17874869089572
C            1.98218739328382       -1.79220236729373        0.11655426695406
N            1.34975831628101       -2.99562479857119        0.09492360109663
C            1.29227533286940       -0.54819227268212        0.01867811660340
H           -3.90680595286589        2.81301256921013        0.32418055856062
H           -4.92270929818954        1.44054081485417        0.37116491140724
H           -4.20170745865174       -0.66072229224366        0.06113155780370
H           -2.04419845066628       -3.35399475719931       -0.41026781811457
H           -3.65491680077823       -2.78822901248039       -0.41243248471844
H           -1.72771761346853        2.75845457048189       -0.00104474381504
H            2.29037897564247        3.76254763361590       -0.30554280637837
H            3.65761018720869        2.71186599321917       -0.29673853127428
H            4.49869828646824        0.35480104256171        0.13805741196208
H            4.13064678930999       -2.25412087665048        0.26536823234021
H            1.82380677529924       -3.79681578678853        0.47732571453455
H            0.34732113940573       -2.90928801637487        0.21687685776053
