32
 energy: -58.373092432394 gnorm: 0.000556515118 xtb: 6.6.1 (8d0f1dd)
N            1.32269723097907        4.19146621146031        0.47989010011531
C            0.86687791984278        3.13798021595964        0.38206255018861
C            0.23451214198152        1.89299952984869        0.25072154868618
C           -1.17723811175995        1.90016596398660        0.21891837021398
N           -1.86958433358370        3.06342898115135        0.38811583487032
C           -1.80621291382334        0.68089938864812       -0.00336850255649
C           -3.15719846826898        0.30606000863450       -0.17135646229949
N           -4.26634700304125        1.09205022300966       -0.07330174198624
N           -3.27180407696663       -0.98911181997843       -0.50862420062650
C           -2.04491432992044       -1.52169703583665       -0.50092523639549
N           -1.88907678652166       -2.77117503079052       -0.96892710686163
C           -1.04335644036253       -0.54091836444354       -0.13942006311848
C            0.33072329984673       -0.56661088974924        0.04958617010553
C            1.04162550234236       -1.78741235536663        0.32735985515694
C            0.30766043220536       -2.85178704805903        0.87023337017438
N           -0.24595285273546       -3.74634058596349        1.34188084051105
C            2.40330761917155       -2.06815287481661        0.23505274836458
N            3.42573671733609       -1.35682069341088       -0.16806823632833
C            3.40511157354659       -0.03343028861581       -0.35674337089967
N            4.58572545823315        0.45021754243248       -0.81076911258790
C            2.38717351714392        0.88997149560091       -0.08919702046846
C            1.01206051821871        0.71431839180608        0.09595095904942
H           -2.78430901576283        3.12052931701482       -0.02765086208479
H           -1.32775290467216        3.91492530869980        0.37738023720748
H           -5.12793683915204        0.56875386311393       -0.12902806047588
H           -4.25500774885076        1.81159772081638        0.63283358843322
H           -2.75354273130122       -3.26224533846213       -1.13551288925197
H           -1.09530480001562       -3.32697748377883       -0.69602635798284
H            2.68609283690305       -3.08293637352713        0.50895726398504
H            4.75866812463913        1.43765670691025       -0.85916773166561
H            5.34962937300065       -0.19568676501890       -0.90278975736644
H            2.70770591305413        1.92493253801901       -0.13501623790654
