26
 energy: -47.232335370579 gnorm: 0.000653552311 xtb: 6.6.1 (8d0f1dd)
N            5.38462802920930       -0.22267133460072       -0.08734524390486
C            4.29546702681106        0.14626481313833       -0.07110574416486
C            2.98505927062628        0.61639284078210       -0.05087931731384
C            2.57179772159567        1.97296935904568       -0.02700971191868
N            1.25725736913070        2.13304086636865       -0.01226261419704
C            0.73328489625177        0.88435437761095       -0.02117897348906
C            1.78893589243411       -0.11702217887281       -0.05847807155707
N            1.54075923962712       -1.42060692463668       -0.10580968035072
C            0.28655622160359       -1.82020337531190       -0.07003060503262
N            0.12855643178410       -3.18572795948201       -0.10455198385745
C           -0.85186460568484       -0.94400105286028        0.04769314940481
C           -2.11610435906677       -1.50014486730990        0.25540395429320
C           -3.36550816984660       -0.91269432409574        0.23685172759517
C           -3.67621614005236        0.43836437510634        0.00464204268996
N           -4.95205078094861        0.78005457696924       -0.25496968543530
N           -2.86067143394816        1.50146841241575        0.09789915005883
C           -1.57113496778531        1.50655502800726        0.17659697991547
C           -0.59484720160195        0.48409112106454        0.03423255766768
H            3.22379026798245        2.82876728350722       -0.01988087689368
H            1.00205465786130       -3.66326314331779       -0.27198566436306
H           -0.66249745243667       -3.57241619704832       -0.59133120976779
H           -2.12863659246178       -2.56849642993023        0.43105203122222
H           -4.21472306689010       -1.57328229175460        0.35943131062810
H           -5.16492788223925        1.75559432989758       -0.37505398604545
H           -5.68574605845606        0.09672450409259       -0.30199961907393
H           -1.13999170839910        2.49312218191479        0.33074067469030
