32
 energy: -59.165769236534 gnorm: 0.000522592980 xtb: 6.6.1 (8d0f1dd)
N            5.11309515883910        1.97549533144180        0.67670580386869
C            4.08728715865368        1.51248967328722        0.44604896255173
C            2.83236188194323        0.92961950146080        0.16157071937066
C            1.82659988467408        1.82283492166450       -0.19797043733590
C            0.45473427222244        1.64278327629537       -0.31266724927128
C           -0.32166728569962        2.84077042698545       -0.39773096576900
N           -1.61325742400972        2.92127683099253       -0.31241310290375
C           -2.28542402968450        1.78383781189010       -0.10008942687459
C           -3.64420631869831        1.61389129983426        0.09023856251166
C           -3.88476956316759        0.24444711646401        0.31549556463764
N           -5.09437639554428       -0.32499396887923        0.53406589235079
C           -2.66577595507014       -0.46910957149467        0.21170456560871
C           -2.55499651850071       -1.82561324949388        0.48610583072572
N           -2.48873977614154       -2.95474944476416        0.71468870491110
C           -1.63165014998034        0.47185840683431       -0.06079834124742
C           -0.25960218908886        0.38874905487315       -0.26526073299295
C            0.37280580900957       -0.87946163850098       -0.55967423430443
N           -0.37564753104033       -1.77296973533717       -1.21896776757597
C            1.68430298506947       -1.26274049912282       -0.22596104357711
C            1.97984400657224       -2.63336098032526       -0.39545353523663
N            2.24402880604950       -3.74315404051944       -0.53812272161386
C            2.76622379523874       -0.48152807669138        0.25304100494034
N            3.84772047399715       -1.13056288363373        0.72639165536002
H            2.16116029940095        2.85127224675112       -0.28520201225236
H            0.20145058925153        3.78281493633916       -0.50389689576951
H           -4.38425353443450        2.38956044792841        0.09399330399311
H           -5.86999221098941        0.26805529928342        0.77198512219499
H           -5.12505050793267       -1.27993865463553        0.85039228968791
H           -0.05795453360176       -2.72197321367146       -1.33995470575256
H           -1.34277240346816       -1.57211392876868       -1.41359435286143
H            4.67480249232603       -0.61361843341499        0.97632619597848
H            3.88127050820498       -2.13655607117162        0.72549887504639
