25
 energy: -43.517719833945 gnorm: 0.000561012649 xtb: 6.6.1 (8d0f1dd)
N            5.09164354007267       -0.91928063650746       -0.00367144984802
C            4.04579363019843       -0.44200989083134       -0.00379938368087
C            2.75250551953000        0.08744766409153       -0.00209208067925
C            2.39173822639736        1.43273389176288       -0.00019486361326
C            0.98281192516794        1.52246066753060        0.00036325140035
C            0.09923975096248        2.58222640044499        0.00183785199527
C           -1.26426751725868        2.31477677171441        0.00188041034324
C           -1.80374897348385        1.02714019898982        0.00046903947146
C           -3.21871333278716        0.89582286750773        0.00091288903545
C           -3.98036542368943       -0.24735731610615       -0.00002939441833
N           -3.63615469007673       -1.53552301663794       -0.00199937767930
C           -2.40182983979015       -1.98599513215221       -0.00334025028082
N           -1.21182654777608       -1.43124476712765       -0.00290277463561
C           -0.89956626732427       -0.11728263386664       -0.00118931334631
C            0.45828523794154        0.18006193500136       -0.00112639270553
C            1.56456833777754       -0.71194174479140       -0.00259510586253
N            1.45326982196254       -2.03689154124534       -0.00425182708791
H            3.07675435763107        2.26052735798164        0.00050014483874
H            0.45058863092877        3.60360595082628        0.00294750478675
H           -1.95401875140776        3.14720344624807        0.00307945925077
H           -3.76573850861370        1.83108760956282        0.00235725858090
H           -5.05932055323572       -0.11576915085197        0.00085394446660
H           -2.35392514468429       -3.07601792832353       -0.00510688847024
H            2.26054001016335       -2.63703369416330       -0.00541416421900
H            0.49633693169415       -2.38348889375721       -0.00449383944249
