30
 energy: -55.711255788120 gnorm: 0.000952424623 xtb: 6.6.1 (8d0f1dd)
N           -5.47480251229781       -0.99945621264678       -0.68869643534922
C           -4.40729083640457       -0.63474759614229       -0.48089578353169
C           -3.08157975699689       -0.21086154039347       -0.22019367619722
C           -2.89054575224707        1.14561344464584       -0.04134482137127
C           -1.67284981594621        1.80623916711235        0.18084314255820
C           -1.77073975505195        3.20872564064297        0.36684534684476
N           -1.87240135652855        4.33941138911159        0.52765833106869
C           -0.38605289881428        1.27695073501395        0.18133215769326
C            0.07699946330736       -0.04033243222080        0.08807536243673
C           -0.78148842172107       -1.24762312438967        0.09997009573691
C           -2.13675243203484       -1.26186043364836       -0.11043892025551
C           -0.11299113199638       -2.52324995565853        0.25199478312942
N           -0.83360725354601       -3.67110635249312        0.43155495108974
N            1.18673153057377       -2.70117131952734        0.16703661852949
C            1.96798167806927       -1.63866661195887       -0.00169233568495
C            3.34681276844205       -1.59697244624279       -0.12362672605491
C            3.73294238745045       -0.24521572274918       -0.19108350333987
N            4.98908917696961        0.22109335874857       -0.30571865240740
C            2.57369738528370        0.57979084942110       -0.10893161238828
C            2.63985154320284        1.96718203083279       -0.15939106081697
N            2.76771377480005        3.11186151623532       -0.20925627754828
C            1.44809432573388       -0.26813338976940        0.00102291821222
H           -3.77336738150016        1.77331692119216       -0.08874958300572
H            0.39971070877582        2.01960693877915        0.26900510292254
H           -2.58723590480833       -2.24120459794014       -0.22765881852657
H           -1.70424623261448       -3.64748712690159        0.93333291525210
H           -0.25790111356977       -4.48415933057958        0.58447399785769
H            4.00668850858124       -2.44130217876281       -0.15315964716036
H            5.76060382231655       -0.41379581014397       -0.39928646714194
H            5.15286069777265        1.21071865773214       -0.37133193485271
