26
 energy: -48.029589106843 gnorm: 0.000739245426 xtb: 6.6.1 (8d0f1dd)
N            3.87398351190149        2.01759616175191        0.34124186118827
C            3.11710333276607        1.16034611783497        0.25271012946329
C            2.23335063695010        0.05773654467928        0.15411620545357
C            2.79185157537337       -1.19623048252878        0.42576193629872
N            2.32268391172033       -2.38691260885618        0.16186276403963
C            1.11449042427085       -2.69102823591261       -0.26129461799351
C           -0.06782079816227       -1.95125748529302       -0.23326205434537
C           -1.19975629285438       -2.73191254358279       -0.56954829487302
N           -2.04988443014369       -3.43137060016818       -0.89425524347776
C           -0.24188297574919       -0.55421022187237       -0.01584845657564
C            0.87771419843898        0.39853330375347       -0.09060075605000
N            0.68994269927105        1.69182441001457       -0.28046133061953
C           -0.52882020347086        2.24109717401655       -0.27300772575074
N           -0.57818657698878        3.55282924928101       -0.53643112661426
C           -1.65880250085893        1.46451636813867        0.03229333521765
C           -3.00682784184815        1.75373958333560        0.21739092339189
C           -3.67963889197112        0.54465247893367        0.47061381683036
C           -2.78555858696785       -0.50173924743298        0.42258413874006
C           -1.49345457399805        0.02878024551402        0.14762796236815
H            3.79752917037986       -1.20291100366134        0.83609793529286
H            1.02927591976756       -3.72225503187820       -0.59292278710450
H           -1.44161769018618        4.06155102150272       -0.48350982414331
H            0.28863618062859        4.03636381092046       -0.70143348101945
H           -3.46477972682280        2.72573063104418        0.18157495707784
H           -4.73120726532252        0.45731205662729        0.67249181487670
H           -3.01914936832360       -1.53295085546187        0.59972494182798
