25
 energy: -43.497599341121 gnorm: 0.000462958034 xtb: 6.6.1 (8d0f1dd)
N            3.85452972563541        1.93257298865103        0.30755363756274
C            2.86494877181265        1.36015552189258        0.19752155479781
C            1.63453218592869        0.68325372375033        0.08306077457761
C            0.43901616531891        1.42726245379194        0.00581233563303
N            0.51426559279232        2.80143267047944       -0.03999851929709
C           -0.81155344662630        0.77313631927605       -0.06103316116121
C           -1.96454288027407        1.54049869421981       -0.36474946492145
N           -3.20897937557606        1.31992573623198       -0.04607304783114
C           -3.70889254570373        0.19298795739382        0.41818334283647
N           -3.30974806161142       -1.02270867445518        0.13285960600876
C           -2.10153083348761       -1.38362304317861       -0.21003007384358
C           -0.87694322479431       -0.68740542919029       -0.04796513958781
C            0.31948938658805       -1.40101916077650       -0.04378188669119
C            0.60972352905623       -2.77485891631153       -0.05279659984604
C            1.99266045633116       -2.92732018539019        0.01431776773565
C            2.61053869510778       -1.67599174349778        0.06637701444846
C            1.60520566778057       -0.70930676247715        0.04104535258048
H           -0.26037578722235        3.33505164703252        0.31393100579639
H            1.42290170688977        3.19764035861685        0.14444851339834
H           -1.80748586895553        2.49594376214507       -0.85831744992241
H           -4.64850954966443        0.27604684905832        0.95294459940698
H           -2.03227991157185       -2.40920915910950       -0.55602123531530
H           -0.10225508646969       -3.57817796957221       -0.07965769344448
H            2.50873085406805       -3.87073017870024        0.02157726512727
H            3.66600495594759       -1.48536150078041        0.11755393125160
