28
 energy: -46.675793324779 gnorm: 0.000504556153 xtb: 6.6.1 (8d0f1dd)
N            3.26415633197338        2.22465991582849       -0.44882533389403
C            2.82439386707822        1.16316782642094       -0.33945354897785
C            2.28373566558507       -0.10652835450707       -0.18207916114888
C            2.99890588286581       -1.30067720365617       -0.30900596923010
C            2.13519486844318       -2.39099639010049       -0.18783751068138
C            0.84551989360758       -1.90064490418891       -0.03056549137261
N           -0.29078088477156       -2.58188922595649        0.17063343048723
C           -1.40932112380886       -1.91316360854050        0.21859866364042
N           -2.55796773821630       -2.66921149555108        0.33726884828843
C           -1.51113979290636       -0.47192423353266        0.05888919481483
C           -2.74975626277163        0.03680862845865       -0.31132862613452
C           -3.11817499593848        1.32369417983113       -0.68170098369959
C           -2.40184729937249        2.49255833738549       -0.50472409839376
C           -1.17583053109105        2.64829021987773        0.11969731447394
C           -0.25333904179729        1.67950971218365        0.50502995746120
N            0.76444458248264        2.07474715363906        1.29145998105676
C           -0.27497354521754        0.27311065607533        0.14923423391346
C            0.89853081890511       -0.44712376181755       -0.00316977313150
H            4.05944938112934       -1.35598629385411       -0.48097398722459
H            2.41252692009687       -3.42621997406848       -0.23221484978266
H           -2.35045018991068       -3.64623455487508        0.48242046434069
H           -3.28918956629155       -2.31099067690367        0.93059548254837
H           -3.52533205360268       -0.70740661216516       -0.43970175594360
H           -4.10313651548163        1.42471539486978       -1.11813643771698
H           -2.88865875584465        3.40677659605742       -0.81982217712958
H           -0.87006598761508        3.66806517135073        0.32166397616442
H            1.51490097627892        1.43818419706315        1.50225093327112
H            0.94309584349180        3.05499443727588        1.43068915570068
