29
 energy: -50.386434395646 gnorm: 0.000787152731 xtb: 6.6.1 (8d0f1dd)
N           -5.25793761484453        0.41469047730148        0.21453540124251
C           -4.12036542486024        0.56589055407544        0.13357892170763
C           -2.72632192168176        0.73709519054572        0.02903888049875
C           -2.30066316976716        1.98742960351716       -0.41322172909880
N           -1.11247612327124        2.52967391952790       -0.29619703482406
C            0.00300870779006        1.92503491679904        0.02323349796928
C            0.36478609817517        0.57146098128811       -0.02002163179549
C           -0.54890998682960       -0.57006465651865       -0.04123514157991
C            0.00542720491937       -1.86382159909121       -0.22578739231271
N           -0.83643252638129       -2.98671098610339       -0.38500199863236
C            1.37552371931865       -2.08769378825517       -0.25764447680169
C            2.26851512639646       -1.04554245385677       -0.07359795591081
C            3.65055436096874       -0.90902186305679       -0.01225754013763
C            3.87750780077255        0.47249963291402        0.11228301706938
N            5.07993131467374        1.10224405330361        0.15931414979917
N            2.73542299371311        1.19953148726333        0.12490335482397
C            1.74118612658562        0.31089196710733        0.03002351507360
C           -1.92174914094930       -0.41729383784774        0.30109381046153
N           -2.57148200023566       -1.45106718122916        0.86793071272979
H           -3.06000475627026        2.66063292570133       -0.80037176160784
H            0.82555262043327        2.59937881220600        0.24200246070601
H           -1.60626052241205       -2.83074549539656       -1.02336077037859
H           -0.31026034387359       -3.80621284334882       -0.65992192156265
H            1.73848742683248       -3.09425331188307       -0.42313383664667
H            4.39704972353090       -1.67753719789569       -0.05230680232458
H            5.06003184978882        2.07210244112410        0.42464883141709
H            5.88824916843519        0.56574809483455        0.42225719350542
H           -2.08613861653842       -2.32351646799169        1.01215158524080
H           -3.55277150241566       -1.37463223723562        1.07798583036535
