22
 energy: -40.328284976048 gnorm: 0.000639281789 xtb: 6.6.1 (8d0f1dd)
N           -5.07692421817412       -0.82267653703571        0.07160739487887
C           -3.99748104328137       -0.43801354522686        0.04874743366486
C           -2.66288510068970        0.03402805760811        0.01937047738391
C           -2.44595033100835        1.39141843071653        0.28975850454749
N           -1.39187329106704        2.07126400518431       -0.08957125242754
C           -0.18961646074312        1.73050648410274       -0.36930167605356
C            0.45406399086726        0.49096913575789       -0.03823557242054
C           -0.27035955556286       -0.76320139592468       -0.08807584750196
C            0.51001243087727       -1.96159257335305       -0.03686116139509
N            1.79981514977285       -2.02829634006610        0.09858135619092
C            2.48779738356116       -0.88766812025338        0.13030226973183
C            3.84535223315333       -0.60093401606589        0.12190082021265
C            3.92391860832763        0.80465139549208        0.13238123988112
N            2.74127673642015        1.41138912482902        0.13174680236538
C            1.82308246189779        0.42286848803604        0.09754631198714
C           -1.65242578963397       -0.91058215588172       -0.20638630300880
H           -3.24118024744463        1.98095240529251        0.73096328386929
H            0.43055017858158        2.48631517913250       -0.83904752966798
H           -0.00988628203762       -2.91110745239190       -0.05350587058476
H            4.66180136171474       -1.29396336161163        0.10265401416310
H            4.82382124329640        1.39416035351045        0.14357052640712
H           -2.00050842012745       -1.92436859905151       -0.37372245682299
