26
 energy: -42.433489388779 gnorm: 0.000987309466 xtb: 6.6.1 (8d0f1dd)
N            3.53777667817236        1.95803369431077        0.58568739561882
C            2.78331489375668        0.92284829397313        0.13924779396965
C            1.40734847795098        1.13977137281019       -0.03538071789877
C            0.38538141753015        0.19528097829136       -0.16532356775846
C            0.63604455511525       -1.24836709044987       -0.06245732213643
C           -0.42482571202127       -2.10514719148683        0.24332594921359
C           -1.73871814081337       -1.67027332173380        0.29520467435348
C           -2.02432786222863       -0.34648889626141        0.03055837718661
C           -3.24853124875700        0.37814991544023       -0.03863412108974
N           -4.49038739037117       -0.12645300399859        0.21129806945697
C           -2.93767666072039        1.71422988919413       -0.32722549451913
C           -1.56074680523231        1.84916622042343       -0.42769323458010
C           -0.95732107616818        0.59339957825385       -0.21135581771594
N            1.80022886609410       -1.84297051775701       -0.33902156514499
C            2.98006069674403       -1.32079249498408       -0.50955051026651
N            3.49985459080858       -0.16421684763013       -0.15596576045391
H            4.53170711672390        1.82613356732418        0.64012846999816
H            3.14258604974693        2.86785529141259        0.73731853536005
H            1.08316531317584        2.16771648059502        0.07285706244369
H           -0.18681438501372       -3.14833279853544        0.38107199676905
H           -2.52676087002934       -2.38203392522338        0.50540334514514
H           -5.28166993170734        0.42767989416371       -0.06986281161632
H           -4.60670864037013       -1.12471003502328        0.16583865427777
H           -3.65877543752735        2.50193374592508       -0.45236849588494
H           -1.05003740253941        2.76463249889907       -0.66695907748314
H            3.71106054008096       -2.01138499303289       -0.92842515164424
