27
 energy: -52.556744751917 gnorm: 0.000507972677 xtb: 6.6.1 (8d0f1dd)
N           -5.05367468005108       -0.68937260791018       -0.29887540983235
C           -4.02391457741231       -0.19010749060482       -0.25086837664259
C           -2.76626828312869        0.46050281274097       -0.18945774594857
C           -2.73778144030861        1.81762213479995       -0.56665280268348
N           -1.82708491256788        2.68137489830081       -0.23744483684916
C           -0.62378179282654        2.52282441762556        0.26251819125872
N           -0.13645005928990        3.56525976475796        0.94477547225468
C            0.24207476282579        1.38234537728463        0.02276082447754
C            1.60065388201749        1.60732072769420       -0.14600445280187
C            2.52878000914800        0.56274477091743       -0.24764758374971
C            3.89360224190320        0.86533220435921       -0.45069935604786
N            4.98857882368787        1.16278224432213       -0.61051863442796
C            2.07989326585528       -0.74174152251372       -0.09755984511986
N            2.79339878818012       -1.88683800973359       -0.11014816348704
C            1.92410724022914       -2.86208846604654        0.05774069810995
C            0.58366909982208       -2.40140577937978        0.18827843563899
C           -0.52597047197832       -3.22291100918414        0.37480774779503
N           -1.43187403518176       -3.91475812940645        0.53168697183703
C            0.66091157182923       -1.00192129943095        0.09641269692430
C           -0.29089415407613        0.04400455999314        0.08653305573045
C           -1.65335727747877       -0.29917775418377        0.14995565913200
H           -3.58801022575499        2.22791765940457       -1.10033306705062
H            0.79096466748948        3.55232460934260        1.33152787292663
H           -0.72300300412283        4.37144955493507        1.08548667764204
H            1.96748004648410        2.62033117377896       -0.23320193960902
H            2.24307774982013       -3.88798472898985        0.09121260821155
H           -1.85469192311503       -1.34471900917273        0.35401064131048
