30
 energy: -49.322763293619 gnorm: 0.000588359750 xtb: 6.6.1 (8d0f1dd)
N           -3.73515404994511        1.79856988422004        0.15836983259617
C           -2.97136667863780        0.66138094277212        0.05509600134689
C           -3.68140362633794       -0.55929519147470        0.00507866496600
C           -3.14021505143032       -1.82736315853262       -0.04963487526953
C           -1.81358936345409       -2.21051017124810       -0.05242488325721
C           -0.65100249058012       -1.41698657270884       -0.00613814476966
N            0.47905608148469       -2.12642478676188        0.01900551923457
C            1.68433769786609       -1.55501263636093        0.02873589329040
N            2.74837126750284       -2.42561985602930        0.07084111463097
C            1.83067672689348       -0.17617213223201       -0.03874969646773
C            2.92181848148788        0.72595509994214       -0.06039338801099
N            4.25440138551608        0.37413122067459       -0.08671778354566
C            2.41989529522855        2.03108199536328        0.00092769021264
C            1.02596572568696        1.98369766444161        0.02807303143921
N            0.13107563681438        3.00132822558631        0.03043919474126
C            0.62599057493489        0.61361845062306       -0.01105503492161
C           -0.63909489854180        0.04565958179200        0.01593692482395
N           -1.68168180170322        0.90579265057091        0.04444501883036
H           -4.70852290614269        1.74926377665238       -0.08653514791294
H           -3.26820769796529        2.67349491923497       -0.01056214563817
H           -4.76052723873918       -0.47599485149974        0.00068602302348
H           -3.85910129930453       -2.63800014240490       -0.09524038856788
H           -1.60673889014058       -3.27136574912371       -0.09691073251781
H            3.57369871201751       -2.09863791764763        0.54709513038027
H            2.47509492228083       -3.37263276468656        0.28797340346325
H            4.88124253272697        1.13130403073820       -0.31701980379308
H            4.46015636895121       -0.47925666814685       -0.58468766685814
H            3.01832074285071        2.92461654966893        0.01078734643984
H            0.41712909579610        3.90712780457585        0.36160540322564
H           -0.81615942521696        2.67320782600150        0.19558988518574
