27
 energy: -52.570235823948 gnorm: 0.000660385174 xtb: 6.6.1 (8d0f1dd)
N            5.56266495751935       -1.99567699081590       -0.00378284191346
C            4.61798346238739       -1.34719518886960       -0.00442860531543
C            3.45386890548177       -0.53783354966388       -0.00276186962161
C            3.67591449723488        0.85775200855977       -0.00106845728229
N            2.83507144913342        1.84101692796056       -0.00131019797778
C            1.49203131247804        1.82737958998206       -0.00273016970422
N            0.97033569247559        3.03914436666844       -0.00473069765292
C            0.55889900766618        0.70945312231907       -0.00161829084397
C            0.92435690304077       -0.68283182937402       -0.00140562005249
C            2.23512620203405       -1.19232406133817       -0.00270649538821
C           -0.09360624757401       -1.66932702331300       -0.00030314192243
C           -1.43952977046643       -1.37405517745611        0.00081266662715
C           -2.39611488991504       -2.41662107994051        0.00156836381451
N           -3.14803412401663       -3.28062199462438        0.00360532490642
C           -1.82619508217413       -0.02431706067571        0.00041679257044
C           -3.05142999343403        0.65794148756608        0.00106508999123
C           -4.34455399823943        0.12895119690070        0.00367266547640
N           -5.41813107979693       -0.27794660487654        0.00118507363838
C           -2.70987570551870        2.02848994574433       -0.00050224898318
N           -1.40141754070966        2.22754130710573       -0.00171383438350
C           -0.80800679574453        0.99947772334813       -0.00103578947674
H            4.71527975672369        1.17734527038302        0.00040735018220
H           -0.07582951659743        3.11607346103499       -0.00437215584518
H            1.60622964115680        3.82163516866307       -0.00502790206202
H            2.30220004113310       -2.27520279152532       -0.00341499831721
H            0.20372942243145       -2.70787948031121       -0.00024434856189
H           -3.39269044790956        2.85847119754845       -0.00047797410219
