32
 energy: -59.183659947732 gnorm: 0.000690997552 xtb: 6.6.1 (8d0f1dd)
N            5.88764266306231        0.64905956789602        0.70755452371456
C            4.79902165115023        0.33401298319727        0.51926489163893
C            3.45931395120283       -0.02993795759364        0.27604268371978
C            3.05685375549704       -1.29998102433438        0.69135508736771
N            2.04951337746686       -1.96854113274514        0.20909934026273
C            0.99639036383626       -1.54454726051287       -0.44365437971878
N            0.43809068666436       -2.38609848742680       -1.31730129832386
C            0.38329165203185       -0.24452634349511       -0.21818318000327
C            1.19054757176768        0.93782824458921       -0.26201108243557
C            0.54009284657142        2.19267759819643       -0.22869905428310
C           -0.82014337734429        2.32178499049959       -0.09159788227473
C           -1.60991984087925        1.18136516201716       -0.00972574835178
C           -2.99899153730163        1.01058780295704        0.14685632029562
C           -3.95986700687014        2.01180208581882        0.24256801895103
N           -4.77208351050745        2.82341473561483        0.32837809187053
C           -3.26168151205488       -0.38030457200908        0.21495858526989
N           -4.48833311019769       -0.94268140173692        0.32934239927755
C           -2.04378219682288       -1.08093717849992        0.07425738879313
C           -1.94877475499739       -2.46235851880132        0.15992164403748
N           -1.90042257346519       -3.61383960609438        0.21870273087345
C           -0.99645729262557       -0.12293209968773       -0.07693875314059
C            2.62287746790162        0.93743509449516       -0.34628637402623
N            3.23921148507934        1.99494596567000       -0.90461633489988
H            3.70315954558516       -1.85895433430704        1.35788208670010
H           -0.47875909044382       -2.19774002076975       -1.68737167864520
H            0.77062300231047       -3.33704790526759       -1.34876739075778
H            1.13479175261279        3.09403346324753       -0.21711111410535
H           -1.27393714216881        3.29922697811220       -0.02322683015060
H           -5.26274336573956       -0.35433036895635        0.58536279634331
H           -4.55291483430273       -1.92367283265707        0.54155453799867
H            4.23984280628661        2.08723239814941       -0.83292100167957
H            2.71034055749433        2.74868448103445       -1.30641727251846
