28
 energy: -50.689133350036 gnorm: 0.000392757903 xtb: 6.6.1 (8d0f1dd)
N           -4.75604989732096       -2.48565656885710        0.58137873961513
C           -3.78573823543137       -1.87850563246941        0.46122532406379
C           -2.63747224756846       -1.09922329926617        0.32050460285607
C           -1.30936436683329       -1.54191041500208        0.37003717800743
C           -0.47214111898116       -0.43085325108497        0.22650366168093
C           -1.31324819710171        0.73171638151805        0.05080322749207
C           -0.69472203148990        1.94381392151392       -0.28176616550122
N           -1.38291132963561        3.03091481167096       -0.70183780483635
N            0.62080128477973        2.11174473961988       -0.13178983686416
C            1.40427909707744        1.10989244652026        0.21836739573727
N            2.59587787696600        1.44334409209922        0.69161355406175
C            3.65742563208098        0.70973483217192        0.85012251622901
N            4.02539919546072       -0.41537803487000        0.27697724900020
C            3.18253498567239       -1.30727456563215       -0.23886101340508
N            3.78494036332291       -2.33136734299110       -0.88328875036127
C            1.77967524188325       -1.35406115859438       -0.08254989071275
C            0.92643250421710       -0.29254082777535        0.17563893726151
C           -2.65122013001493        0.30857544812941        0.12416330383782
N           -3.77826357423188        1.07909459016000       -0.01582420345013
H           -1.00771177707637       -2.56077268868962        0.52821076075522
H           -0.82560412954693        3.80584180979899       -1.02326445129187
H           -2.30037532793449        2.90644948373501       -1.09416816063373
H            4.42782566327270        1.16014274379296        1.47218618586563
H            3.26418506623041       -3.12881833067462       -1.19894292547410
H            4.78885055147824       -2.34293744418752       -0.91849458771389
H            1.30943898774674       -2.30595467078603       -0.29970203579217
H           -4.64078535813997        0.61001070530320        0.22188490662938
H           -3.71705604068135        2.02570493064589        0.32753988904482
