28
 energy: -46.665332353734 gnorm: 0.000651627690 xtb: 6.6.1 (8d0f1dd)
N            4.98099143360441        0.11665922910672        0.37131005088124
C            3.88026869954648       -0.18963613084763        0.24441095795326
C            2.52798462120833       -0.55862828592713        0.07028945659974
C            2.33733004171508       -1.88530348125909       -0.32999107363083
C            1.15020603894718       -2.57744966975504       -0.38289657604230
C           -0.12363443181269       -2.09076108128611       -0.11994283759800
C           -0.60453410707002       -0.79057604561920        0.01856657129754
C            0.17733599107256        0.43749873914478       -0.03050072548919
C           -0.48670259927308        1.65591032672493       -0.27824426149807
N            0.23634447193728        2.84619110285614       -0.49894505211078
C           -1.88191940669196        1.75399953254196       -0.28792435804741
C           -2.64771121933942        0.64782568347708       -0.02064488072698
N           -3.99308639363510        0.54406908433790        0.06119309015718
C           -4.23367861974105       -0.74493100356863        0.25901783565801
C           -3.07041431025335       -1.53601236434717        0.29816967037909
C           -2.00982426194998       -0.65133600085182        0.13391528264719
C            1.57617198737541        0.46031883671280        0.31032273314813
N            2.04131465376437        1.56706885695155        0.92038009665574
H            3.24501432500173       -2.43800731244295       -0.53999128446864
H            1.21871351505968       -3.63071451685663       -0.62053290157779
H           -0.89838177341488       -2.84587907364979       -0.10139784319357
H           -0.36577421552018        3.59373212371421       -0.81735959136412
H            1.03382818903484        2.74062828087417       -1.11268217117407
H           -2.35090439774741        2.70746997599199       -0.48394228299761
H           -5.24547026806330       -1.09321026362471        0.37524447817111
H           -3.04684622443164       -2.59818563499500        0.45159903603283
H            1.43917409934376        2.36931697882843        1.02528713335937
H            3.01933940833281        1.64313329346796        1.14740422517923
