31
 energy: -54.644171238303 gnorm: 0.000714502747 xtb: 6.6.1 (8d0f1dd)
N            2.02901109632419        3.37847815900608       -1.22750504373851
C            1.26416435958120        2.63748748011795       -0.79553981282503
C            0.21747564201486        1.78077586049244       -0.39866349402851
C           -1.07116792463330        2.34043311233444       -0.39040276195740
C           -2.13784812928454        1.54904452660073       -0.05602713246029
C           -3.52243445337250        1.83225879616422        0.10971879045943
C           -4.16187784059229        0.66586049760109        0.43931524193541
C           -3.21587675676430       -0.39390001994169        0.48136276061717
N           -3.52707751268661       -1.68626657342073        0.80422182453052
C           -1.94997794800468        0.13393286688906        0.15134209940105
C           -0.69415395204156       -0.47798883560337       -0.04610765413722
C           -0.62673544065996       -1.84402059272716       -0.30214234760443
C            0.49995778134398       -2.64689826371494       -0.54921066920824
N            0.28119220375805       -3.88196215801408       -1.07649102339217
N            1.76108844766400       -2.43439395785994       -0.21586382792588
C            2.29095446936368       -1.32136927999472        0.26574831989664
N            3.51872107642816       -1.50200601828491        0.80115106791718
C            1.77370851155896        0.00296693350163        0.19436000317322
C            2.69438300212755        0.98784297012264        0.60260236305846
N            3.49881307301866        1.68004383661601        1.04986951170052
C            0.45486547599893        0.41933382476894       -0.11491727587325
H           -1.18910521009339        3.39089763528522       -0.61398040122704
H           -3.97116982596689        2.80195834625793        0.00084463787059
H           -5.20850103772577        0.54873266956020        0.65668996479496
H           -2.78999818465387       -2.24088248180407        1.21326590719597
H           -4.43510593691692       -1.81850716208225        1.22389795369165
H           -1.57472609895367       -2.33781676497389       -0.46750892278333
H            1.09074013306521       -4.42032340318872       -1.33109682438312
H           -0.59471745981228       -4.09238935174084       -1.51945228866215
H            4.08800406811967       -0.71668254780973        1.06618593031801
H            3.92512491459530       -2.41815547315686        0.73299641304824
