28
 energy: -47.486622502108 gnorm: 0.000591777879 xtb: 6.6.1 (8d0f1dd)
N           -5.92153014218008        1.44663098094874       -0.00228361345727
C           -4.84577211168979        1.04676520490845        0.00023765036915
C           -3.52250617430818        0.54930744767765       -0.00058370388505
C           -3.38497875188897       -0.84872952344239        0.00083484072095
C           -2.23869811037244       -1.59603391769410        0.00142887115470
C           -0.86641445381723       -1.24117196179053        0.00096628830620
C            0.03042325583592       -2.30407904790244        0.00207174860367
C            1.42190480161918       -2.16218105476443        0.00187639682851
N            2.22383073764626       -3.24482966174060        0.00257100579263
C            1.94542453038882       -0.85853855773421        0.00045560869872
C            3.25305074862634       -0.38468957433439       -0.00010641940216
C            3.19214515205938        1.02432230764941       -0.00176873130286
C            4.30314899368854        1.87653423149379       -0.00367598381767
N            5.22016833745282        2.56866256096884       -0.00184889981276
C            1.85504034322607        1.42767510045102       -0.00192706312665
C            1.04725623423005        0.27458259593659       -0.00069156956443
C           -0.35302801371427        0.12742438826716       -0.00050758682399
C           -1.13413670744015        1.29190544265372       -0.00174340088272
C           -2.49860270674092        1.49504155776265       -0.00177268416265
H           -4.31768671352896       -1.40096207729745        0.00165459537583
H           -2.40467362240092       -2.66769155147200        0.00259207573048
H           -0.36658166897141       -3.31032128103241        0.00315185661567
H            1.83609831353393       -4.17112647691326        0.00516494279028
H            3.22113023888379       -3.13464563732931        0.00393756750964
H            4.16161303277516       -0.95904917892676        0.00029650999125
H            1.53781876279121        2.45365336846226       -0.00309006423576
H           -0.55443456976395        2.20508423476831       -0.00276976131648
H           -2.82416317124022        2.52901335892570       -0.00273223749723
