32
 energy: -58.367696280860 gnorm: 0.000847326489 xtb: 6.6.1 (8d0f1dd)
N           -5.29174877874562        1.12770533185315        0.87739674748944
C           -4.26704941275349        0.66938923210469        0.62024573261195
C           -3.03321720989905        0.10935606094292        0.30103392358880
C           -2.83473291847694       -1.18128800322992       -0.22650368729812
N           -3.80027544115403       -2.07376336234584       -0.51100999746268
C           -1.43507058942326       -1.37175486358016       -0.37129372906203
C           -0.68293287377163       -2.42014044791266       -0.85844577719606
N            0.62873246932515       -2.45014503843892       -0.73418006446070
C            1.27978747522505       -1.40939117910079       -0.21294853178350
N            2.47965326185154       -1.69307492458253        0.24220429926768
C            3.48423968921963       -0.92581487787937        0.60479247842577
N            4.41724018497033       -1.55484973998033        1.36674167878792
C            3.72818029531883        0.40126958436933        0.21443486501828
C            2.78467035131493        1.30696208564454       -0.24568138195670
N            3.23071592792759        2.55138228285517       -0.57611096039920
C            1.37196425449173        1.10526989472784       -0.28158612252373
C            0.63585696381762        2.22411115623599       -0.68164607484621
N            0.05108641022435        3.16355588894393       -1.01467022612638
C            0.63296383323706       -0.09046278800963       -0.09076755523858
C           -0.76071964577316       -0.15123294664914        0.02924776481330
C           -1.77591787213244        0.75408449825775        0.45929332443964
N           -1.65551694202088        1.94011387815142        1.08964784100774
H           -4.76569914429580       -1.81837239105304       -0.40070211291190
H           -3.56755849370185       -2.95940302001035       -0.92053437611186
H           -1.12838283880114       -3.29665652732016       -1.31427779273000
H            4.31094975923484       -2.54700133725789        1.48777603291056
H            5.32479699419873       -1.14649101035173        1.49810970024714
H            4.74143752560031        0.76695511900175        0.32130139901556
H            4.21784216566691        2.71377266416674       -0.65642180339995
H            2.60397729136729        3.21796130099512       -0.99244061557229
H           -0.82352634035375        2.49324853094065        0.97183288430924
H           -2.50998837548711        2.45180716701159        1.24846051774796
