31
 energy: -60.232217679415 gnorm: 0.000929512351 xtb: 6.6.1 (8d0f1dd)
N            5.11433489252007        2.03042210029741        0.37564006124322
C            4.04806034599320        1.61686511925398        0.26867452215476
C            2.74581866000456        1.08949020337636        0.13491941961913
C            1.70867412229536        1.99307705676512        0.31265763070081
C            0.33442099380908        1.83511998862130        0.18086059936162
C           -0.34792917443195        3.05740706714210        0.39337538041859
N           -0.80448101111371        4.08769357487037        0.61099262918142
C           -0.43851285527957        0.65112356778178        0.00958858751801
C            0.11699917473842       -0.68167816502757        0.10811959970631
C           -0.75555149840115       -1.75172300509951        0.42973646274469
C           -0.24435946614308       -2.98091668164091        0.90147038584231
N            0.07884062770989       -3.96386397231157        1.39861869784536
C           -2.14905642665814       -1.63136491433034        0.40029907692407
C           -2.67712719208009       -0.42515284525964        0.02164786069743
C           -4.00387670308938        0.05449181614596       -0.22012968461401
N           -5.14655176626284       -0.63096421072242       -0.15492380374034
N           -3.98571009714188        1.35939622271138       -0.56319269940330
C           -2.72500429096984        1.76543858005133       -0.52357076896156
C           -1.82752876126058        0.72477462199625       -0.16533389294525
C            1.45942634109552       -1.03884369947906       -0.21421454223340
C            1.62833001081064       -2.36034269922670       -0.69072826865552
N            1.84149347763251       -3.36375217630667       -1.21040614733227
C            2.65122678710896       -0.28617185648814       -0.22279468226149
N            3.79929753847585       -0.90834584021210       -0.55230662194243
H            2.02705123054802        3.00251267893565        0.55432865058187
H           -2.75907333348584       -2.48775698503625        0.64869272998713
H           -6.00618842398227       -0.14609449436787       -0.34785874400331
H           -5.16091691751667       -1.59849262886902        0.11325187005969
H           -2.49357341665862        2.77941578897334       -0.78654666249911
H            3.80369755797755       -1.88935727345013       -0.77867084110751
H            4.67050260425127       -0.40446637798481       -0.53000700498758
