31
 energy: -59.450330293338 gnorm: 0.000959367491 xtb: 6.6.1 (8d0f1dd)
N            4.40903310689821        2.65758350468878        0.35383600949650
C            3.69885811661209        1.75766280953117        0.27842009096615
C            2.89396051633386        0.60558604109986        0.16600232497293
C            1.52568741649886        0.76044363954621        0.18280749620350
C            0.48908009145639       -0.18440587600191        0.04035730307160
C            0.67592296365017       -1.63532259040895        0.06906394313418
C            1.89320888382124       -2.25265158016845        0.32964659361767
N            3.13696130944752       -1.84459270447402        0.18565769519838
C            3.60268013344537       -0.63764181708522       -0.03661516386784
N            4.88598832899454       -0.57250184137814       -0.42039227448565
C           -0.49593334583504       -2.46273729772316       -0.04892723959090
N           -0.40173330198818       -3.82046188432854       -0.10892042299147
N           -1.73207092498890       -2.00336175111189       -0.08410193804858
C           -1.92122960145249       -0.69389834800556       -0.04764451928583
C           -3.13376001907582        0.00630323403490       -0.05556079626177
C           -4.42716611151211       -0.51055540893022       -0.07288733510530
N           -5.51693947201952       -0.87878750842889       -0.08660142630365
C           -2.82595000869907        1.39591524149158       -0.05052876045200
N           -3.72808020112246        2.38915308169346       -0.06457025019870
C           -1.41772573113293        1.55980790554731       -0.02561839385592
C           -0.81166812730830        2.81160686972805       -0.02807029016176
N           -0.36483635707718        3.87430063330830       -0.03454955539887
C           -0.82748861308218        0.27375379940632       -0.01693727644864
H            1.18769435892224        1.78633302347081        0.27747690761597
H            1.85659623652844       -3.29025335909664        0.65042524018174
H            5.40303764313265       -1.42975185119853       -0.51886396329045
H            5.35427254787164        0.31327603783668       -0.51683679228381
H           -1.27877065087736       -4.28493829348363       -0.28184507120685
H            0.42967327728913       -4.26677319968299       -0.45079489845119
H           -4.71028115266780        2.17617165364738       -0.07088011490676
H           -3.42595888847403        3.34785739218661       -0.05364923116883
