28
 energy: -50.681929080565 gnorm: 0.000935301100 xtb: 6.6.1 (8d0f1dd)
N            1.46713730198452       -3.94137369412249       -0.11024580683895
C            1.06189330408433       -2.86709475498453       -0.05671598909318
C            0.44980552658649       -1.59950514683611       -0.01136816110734
C           -0.97481387323663       -1.56815590074717       -0.02522004712884
N           -1.67978297218302       -2.73149726713688       -0.05260010848779
C           -1.56087376557488       -0.31439823307116        0.03418401013343
C           -2.88780766059629        0.19749644739025        0.08680994035885
N           -4.04534708825910       -0.50998176074390        0.12564346408670
N           -2.91734610797165        1.54128118688938        0.06418738542571
C           -1.64337083477819        1.95843129279917        0.01955465405314
N           -1.25178787942363        3.22706788996138       -0.00768601445841
C           -0.72491247349362        0.85517269112327        0.01797296685823
C            0.65523186763251        0.85528249166346        0.00911215992635
N            1.24683410525474        2.08396357781039       -0.01802972727546
C            2.52909578012945        2.32661777082641       -0.01068718719709
C            3.63264785872264        1.47175397238854        0.03515883717497
C            3.59405001861455        0.07837274752203        0.06790708763240
N            2.59469124290597       -0.76324459205411        0.05228668792440
C            1.28021579775986       -0.46538439265171        0.01982782991959
H           -2.62305230531087       -2.70932189801133       -0.40012649896871
H           -1.15642730975840       -3.57763034800830       -0.22133660607629
H           -4.03188042354607       -1.41194264791613        0.57302110602903
H           -4.86701061677485        0.05044766191893        0.29295784992526
H           -1.91882705469789        3.97757475619488       -0.00322480646999
H           -0.24297821902562        3.35537439686492       -0.02372556572639
H            2.74984467855468        3.39294831316916       -0.04123599259648
H            4.60882156044874        1.93623543915025        0.04510134828490
H            4.55584306055364       -0.42890788418883        0.10883364889444
