31
 energy: -54.656351156272 gnorm: 0.000647336323 xtb: 6.6.1 (8d0f1dd)
N           -5.79757615092349        0.51656140657541        0.27820140340383
C           -4.70959606984991        0.15056026795170        0.19978518972298
C           -3.37400673408149       -0.24287724897492        0.10939624768947
C           -2.87797300619187       -1.54896148016668        0.03426175569191
C           -1.47693598468584       -1.48966402987590       -0.02888199846379
C           -0.49770105800358       -2.46051791116398       -0.12184685367741
C            0.83592733556717       -2.06848269280818       -0.14194743509394
C            1.80065111834660       -3.09033556847820       -0.22126898256797
N            2.56887402584517       -3.94380690663613       -0.28774030444759
C            1.26515108150067       -0.70270925600155       -0.06851515258685
C            2.63050908236958       -0.47255440697965        0.01906944860968
C            3.36167493398708        0.72566254957547        0.12883285434763
N            4.71053498801497        0.58967342613807        0.24251366065262
C            2.84910647947838        2.01610629774231        0.06916154239142
C            1.50744950127764        2.38955989557410       -0.10041962159906
N            1.25800760288382        3.73036256772647       -0.20447830787001
N            0.40597135443659        1.66309066602014       -0.10304318994507
C            0.23692354501193        0.33562088032550       -0.04679277607418
C           -1.08641154297250       -0.10197499361521        0.00156883698875
C           -2.27789347582539        0.66607335348252        0.08449781372530
N           -2.31203146476372        2.00408781594807        0.11894397780936
H           -3.47602858486542       -2.44151429666352        0.02771051854493
H           -0.74624821991550       -3.51120818129052       -0.16864892599487
H            3.24608837078223       -1.36545846533444        0.03088205901526
H            5.10910599610426       -0.32063192157300        0.38767012432210
H            5.28145182839834        1.39086454084248        0.44268688490078
H            3.56430602058964        2.82666198479665        0.13029314171900
H            2.01349465415402        4.35979429682893       -0.40771165534597
H            0.33621864392480        4.00723977308718       -0.49506314369802
H           -3.17211839063686        2.50149221370753        0.26873116125075
H           -1.39952130585713        2.44412549083918        0.14092971337906
