30
 energy: -56.513407137850 gnorm: 0.000632649410 xtb: 6.6.1 (8d0f1dd)
N            5.27231426161570        3.03795917453709       -0.29632091315953
C            4.29992393701441        2.43585165629846       -0.20904480238583
C            3.09539449945993        1.70200893444331       -0.10994606015363
C            1.90141362707053        2.43167214671152       -0.27340037286410
C            0.61214717213016        1.99133322919200       -0.17393448427964
C            0.06127000263920        0.68882970369929       -0.04255372500533
C            0.81931053546206       -0.54339409490219       -0.03853508137724
C            2.21484912308696       -0.61833997865774        0.25515010130700
C            2.70394027012589       -1.85236611795313        0.75844821365387
N            3.16662017875882       -2.75660788304630        1.29245759944683
C            3.20768891173951        0.35302085283617        0.20679694685925
C            0.13361726877073       -1.76135810033085       -0.25242091253603
C            0.81740762093977       -2.95643050023007       -0.57229321189944
N            1.25115196244967       -3.94988110716916       -0.94935462799151
C           -1.26359721417560       -1.84897628587167       -0.26744491113002
C           -2.00061088248657       -0.71011606720902       -0.06662722651975
C           -3.40176689904120       -0.48475257737908        0.01561830311057
N           -4.37661242470362       -1.40515033829613       -0.03020500388553
C           -3.58734035216866        0.91812982379711        0.15682455137250
C           -4.83855659526204        1.53143037548587        0.28238615633065
N           -5.88271047032513        1.99940634454813        0.38328256222443
C           -2.34294009636535        1.55108630550600        0.15384785283378
C           -1.33526705454138        0.57637302650635        0.02250938761917
H            2.03563593153422        3.49051229497432       -0.46096421788805
H           -0.13684674504260        2.76495354083943       -0.27479329678988
H            4.20915905110449        0.00058584845116        0.43112333984613
H           -1.72177949966270       -2.81510309822988       -0.42617451321510
H           -5.33907267297274       -1.12332937539731        0.04700327971544
H           -4.15894609237950       -2.38125036588372       -0.12288984120320
H           -2.21525414437503        2.61235364873065        0.25808650146417
