29
 energy: -55.992091306888 gnorm: 0.000799089930 xtb: 6.6.1 (8d0f1dd)
N            4.22318910895373       -0.32285419015135       -1.28401202534781
C            3.19448736838676       -0.57237870363757       -0.84001803036135
C            1.90375049913372       -0.97788815268797       -0.42610959692768
C            1.62811475242834       -2.31400192672461       -0.71765536459780
N            0.63409674239300       -3.06593507546427       -0.32432290433457
C           -0.49230920552240       -2.66983748384568        0.24945845360038
N           -1.18076099131528       -3.66295000121890        0.84131815988615
C           -1.08116900966408       -1.37100044349406        0.18516933577870
C           -2.42782975572854       -1.34222011212710        0.56129434414639
N           -3.53814991569080       -1.37779934160903        0.87337096833804
C           -0.43802085973511       -0.12388376177964       -0.03732604578739
C            1.00763967958062        0.02515119731053        0.04740895327146
C            1.53906174681300        1.26409146096664        0.46209831947524
C            2.88131803438796        1.37111674242945        0.89033597667524
N            3.91978945236343        1.52360803835524        1.35361395459964
C            0.75640038091615        2.42290198013386        0.53669475708284
C           -0.55136193037007        2.34042130741301        0.13084655029033
C           -1.56456802902045        3.31480612089232       -0.07443528330043
N           -2.67317439422572        2.77662175402596       -0.52536850807483
C           -2.48241266927639        1.42627512470959       -0.60384253800574
N           -3.45106468212182        0.71283944986447       -1.18627081376426
C           -1.16359864957022        1.06875106622695       -0.18043724083344
H            2.38956146438406       -2.85807657793200       -1.26823853087487
H           -2.08712113433094       -3.51174048462877        1.24906661550385
H           -0.78478757296034       -4.58686775815642        0.81780368017133
H            1.20125407415012        3.35479751398611        0.85093492039109
H           -1.48534375545886        4.37423374636022        0.08474242036203
H           -4.29572887020281        1.22776618582477       -1.38294347296981
H           -3.52328963899696       -0.28524446154126       -1.07999538789233
