28
 energy: -51.479310322541 gnorm: 0.000540356250 xtb: 6.6.1 (8d0f1dd)
N           -4.65054371690795       -1.90380009692675       -0.06726164289422
C           -3.64334691477930       -1.34879197067178       -0.04794756755892
C           -2.46762198886036       -0.60039019774887       -0.03734285199141
C           -2.42749648519990        0.81447333931829       -0.15149336843876
N           -3.50903778358870        1.61829023951507       -0.24346048865057
C           -1.08346587002818        1.24277017201127       -0.09050390370170
C           -0.69913159720737        2.56502309577710       -0.27116272858907
N           -0.39599159192360        3.66948231389431       -0.41308621297686
C           -0.25299932382456        0.08846124024495        0.04201886438173
C           -1.14452045034436       -1.06296546664409        0.04141859733132
N           -0.72049062934773       -2.32056181896351        0.12262252404977
C            0.56769965184720       -2.51816347160730        0.14009102474246
C            1.55422604055045       -1.49900564133350        0.10147843809529
C            2.89870257658163       -1.90111401978354        0.02223519437881
N            3.91392492263354       -1.25819055030893       -0.48317636727365
C            4.05358858606535        0.03252834976818       -0.68087190029481
C            3.33564658611206        1.05398679480986       -0.08242898625847
C            2.03915121300600        0.95948594955083        0.43728490720647
N            1.58513021867500        1.96874172173438        1.18669509504034
C            1.11758126948208       -0.12376040098806        0.14495441835694
H           -4.40767421173967        1.19925594226188       -0.41185535198313
H           -3.38259546922247        2.58780230028591       -0.47858522092091
H            0.88650175873924       -3.55188653583111        0.14587852420932
H            3.11877805211265       -2.93498108799723        0.27229340544928
H            4.92737228449150        0.29280902291652       -1.26880192541648
H            3.79392885552115        2.03432800188929       -0.04411792618642
H            2.12943036379965        2.80864104304116        1.29462858754028
H            0.62225860405721        1.99849083208520        1.48001670115345
