25
 energy: -47.517920850264 gnorm: 0.000625778733 xtb: 6.6.1 (8d0f1dd)
N            4.83758218191528        1.35141561150955        0.39054841841043
C            3.78508345787050        0.89420562276962        0.30807986264741
C            2.51383115517584        0.33189654654702        0.19760523687040
C            2.24387230977792       -1.05088740027186        0.06335951221652
N            3.16440062031619       -2.02476343488241        0.03081441681559
C            0.83086851422501       -1.21908073903833       -0.04536235444545
C            0.01165134570456       -2.27098399309544       -0.39312702485611
N           -1.31153437811002       -2.16542546251989       -0.38235917570237
C           -1.88609600276320       -1.00799066316068       -0.10444004047770
N           -3.12217669013681       -1.02577135936635        0.38235942386911
C           -3.92033683285888       -0.02002108602468        0.59630700588574
N           -3.98717441638294        1.16012464234250        0.00299481957261
C           -2.93410011741065        1.71028246148963       -0.57151993948398
N           -1.65922538749161        1.45087071319959       -0.43569140668002
C           -1.12166604725943        0.26308658816836       -0.11364550171032
C            0.23855714555992        0.09639867670522        0.05722935337277
C            1.29050607891986        1.04699216487548        0.17473050447076
N            1.09706050226539        2.36610240975565        0.24041175139678
H            4.14238838232648       -1.79515835634823        0.07266639610653
H            2.88793621921330       -2.98163829429224       -0.09262316777507
H            0.39170883415850       -3.24894092224419       -0.66131318409389
H           -4.72946147397387       -0.22503588941647        1.29365234304750
H           -3.14682816409950        2.61671749089181       -1.13529514222168
H            1.87327009111089        3.00536861804876        0.20828425004648
H            0.15684167664748        2.69392277465963        0.06943998211700
