27
 energy: -46.156776680603 gnorm: 0.000589565467 xtb: 6.6.1 (8d0f1dd)
N            4.47921196673655       -0.94750228499708       -0.65870490617461
C            3.35560894972822       -0.37010058811073       -0.15824052250840
C            2.23415034809195       -1.18298856666976        0.04862843250600
C            0.89578878582166       -0.80414176815233        0.22506516951288
C           -0.07943509967343       -1.80044461684502        0.31611129826583
C           -1.44725298718993       -1.55459354320396        0.20982930999334
N           -2.35404825148680       -2.57505727763637        0.29105299127283
C           -1.84903121008822       -0.23930443743899       -0.05570096420153
C           -3.08227586950910        0.40041067789111       -0.26848654318397
N           -4.33215040238622       -0.16152398208348       -0.35171035407830
N           -2.93304495502518        1.74656523664838       -0.35267573466619
C           -1.64259327210035        2.00579188187087       -0.21191673778910
C           -0.88177582712820        0.82592116464183       -0.03738767697740
C            0.47681098210930        0.60519403642708        0.18121801444915
N            1.25220572436741        1.65491334987601        0.43535035558691
C            2.55050956606789        1.71936934476840        0.53682809736824
N            3.51771095545744        0.92323713671930        0.14049436105850
H            5.31368204190793       -0.38796364193707       -0.67231640228083
H            4.55817294355127       -1.94563613268880       -0.72513281651734
H            2.40524283181386       -2.24776442184031       -0.07283887340188
H            0.24734211214533       -2.82443906539278        0.44434190498147
H           -3.29752001184250       -2.32111034929752        0.53439786227321
H           -2.02477768664885       -3.44554517587175        0.67736338420528
H           -4.39208888009195       -1.03675376383752       -0.85096608869508
H           -5.03482334189932        0.51166300174047       -0.62374638240725
H           -1.27345410477700        3.01300330954097       -0.24826965348477
H            2.90967259765083        2.66344947807670        0.94477226599191
