27
 energy: -47.751915554048 gnorm: 0.000749623656 xtb: 6.6.1 (8d0f1dd)
N            4.30245831717839       -1.69526138306202        0.53957578625986
C            3.19354815985142       -1.43722480920268        0.38863140314453
C            1.81678415727779       -1.18258236023673        0.21876270257576
C            0.96040299388978       -2.28132038080694        0.26840996649473
C           -0.37828781633451       -2.07142777209190        0.04181463335700
C           -1.47602407328423       -2.94205699451425       -0.10734817956505
N           -2.58748179620948       -2.28215295032606       -0.38086919498113
C           -2.30486530392281       -0.95741003119012       -0.38072891775996
N           -3.28148662628053       -0.12671288575778       -0.78628563458957
C           -0.91237030972847       -0.72688166133526       -0.10537606189506
C           -0.07462935223475        0.38230686537391       -0.00769471225485
C           -0.61096109139970        1.69970299252488        0.21893615957781
C           -1.86281396820038        1.75520921001835        0.85257956027469
N           -2.88237862125101        1.84591099214997        1.38126719878289
C           -0.08646154344175        2.95681557955534       -0.06323355270846
C            1.16605528233860        3.29168116203164       -0.54163161353307
C            2.26444810963721        2.44134535386165       -0.61394153208803
C            2.34657818061037        1.10720385773696       -0.28300944027059
C            1.35272720909592        0.14224606895574       -0.00928574430651
H            1.35798765065935       -3.27155905392840        0.43556258675159
H           -1.47109843144203       -4.01437767133306       -0.04453789516055
H           -3.31136921814392        0.83691490157011       -0.49378011650321
H           -4.17140214114485       -0.58590397775153       -0.91269006010725
H           -0.76763949138849        3.78157406013030        0.11839419496362
H            1.32950952202126        4.32924524881042       -0.79686463996168
H            3.19611867061370        2.90207546628401       -0.91753820378239
H            3.34874339994931        0.69483713874141       -0.31641533041475
