34
 energy: -61.816195671807 gnorm: 0.000647634194 xtb: 6.6.1 (8d0f1dd)
N            5.50826006085585       -1.00583054368447       -0.05916950494208
C            4.43470551701927       -0.58863330541491       -0.02522961942164
C            3.13309964470740       -0.06783594721325       -0.00196291225001
C            2.98234192678337        1.27348927508191       -0.44225401435153
N            3.94632952694454        1.82632696497964       -1.20603798606598
N            2.02925376060585        2.08612575604425       -0.03552462997975
C            0.84389698347974        1.79506602761978        0.44306679046533
N            0.25744331906402        2.75608467826377        1.16783629223447
C            0.07990505972444        0.59614444806505        0.16978055820214
C            0.69470509660344       -0.70367695655065        0.17541046770209
C           -0.17393504207090       -1.82383119744841        0.00172550196778
N            0.32590583878507       -3.13876363634445       -0.08797728177258
N           -1.48115969798853       -1.75038621641833       -0.09092262615421
C           -2.06296711873458       -0.56131471511000       -0.05654905824962
C           -3.42051092865654       -0.23654583750693       -0.12983719997841
C           -4.51024621003610       -1.09369382737363       -0.21490797373166
N           -5.44992529982380       -1.75557222844844       -0.29859864324796
C           -3.50725421540431        1.18930421466899       -0.15772824152278
N           -4.68730530786170        1.87713154341052       -0.18607569301945
C           -2.23218939319144        1.73760030094429       -0.06034040804558
C           -1.30395691328734        0.68438119111220        0.02397739320640
C            2.08914417903328       -0.92174350908435        0.42460592002545
N            2.45660105529323       -2.06352663764141        1.03494585655196
H            3.90835758214824        2.81487312115052       -1.38259081108526
H            4.79676330136409        1.32259986047011       -1.39003885233889
H            0.74855442783613        3.61715104985651        1.33414466128455
H           -0.67569527054434        2.61874996835636        1.51715921421365
H           -0.45649195757937       -3.76019985362860       -0.26212246525706
H            1.03766993453372       -3.25683899991460       -0.79969215652373
H           -4.66204916070480        2.83492945660883       -0.49394890412475
H           -5.50551593656385        1.35086629462556       -0.44778327401623
H           -2.02208892554207        2.79092081950264       -0.12268965761174
H            3.43297842563493       -2.29732404434505        1.11050725811835
H            1.75416996267203       -2.76994593693284        1.20604065321899
