32
 energy: -59.958146363402 gnorm: 0.000606066759 xtb: 6.6.1 (8d0f1dd)
N           -5.21685711115123       -1.43928794797371        0.41596488500808
C           -4.10665167678769       -1.17126479748568        0.29701057603340
C           -2.74411712188346       -0.82687477827655        0.14879932177287
C           -1.83784479412659       -1.84192733112568        0.41133425152780
C           -0.45484317110614       -1.87477755851783        0.25610356168409
C            0.06574756420414       -3.15876209327320        0.56035046723066
N            0.37830309877053       -4.21820233822813        0.87060042103058
C            0.45821496024716       -0.82705484133243       -0.01817686272824
C            0.08679003186235        0.58433287173358        0.06311836030790
C           -1.19502511739587        1.10070601741037       -0.26621531459070
C           -1.19669281873318        2.43260230304736       -0.74865333375687
N           -1.27911180115055        3.45707723752979       -1.26351681683159
C           -2.47064771771120        0.49955722681133       -0.28582371304943
N           -3.52458531833740        1.23921007102494       -0.68988562606269
C            1.09403955111711        1.51767696260941        0.36076260820738
C            0.77206321018378        2.81577270595921        0.80191392132816
N            0.63062441108567        3.85351159086935        1.27681348734925
C            2.48168544553931        1.20389145782553        0.31149969434590
N            3.39817731143794        2.13411513758826        0.61534318446909
C            2.82639655570413       -0.08441695041364       -0.10915815383451
C            4.06354028833159       -0.68245142071382       -0.37257107370962
C            3.83327448210918       -2.01802322036493       -0.72243935553688
C            2.47955890074690       -2.28453045898042       -0.65055580003374
C            1.80772539291175       -1.09496575971577       -0.26256995803163
H           -2.28349220031693       -2.77747778708470        0.73376189627356
H           -3.40429681522126        2.20403295459957       -0.94950447898389
H           -4.45300650917010        0.85256038912872       -0.65676521560949
H            4.37623480235402        1.91674660870273        0.55013247526877
H            3.11255334045058        3.05784588863797        0.89689608039754
H            5.02669788254591       -0.20672435358261       -0.32961221127727
H            4.59222008585223       -2.72246868536915       -1.00758819051385
H            2.01808400472291       -3.21981386234188       -0.89936390939029
