32
 energy: -58.391478712218 gnorm: 0.000700007959 xtb: 6.6.1 (8d0f1dd)
N           -5.23659268688393        1.27295470601132        0.37340359107476
C           -4.20085445846057        0.78749359140494        0.23917171829219
C           -2.93887333762642        0.18667220400693        0.07321969920213
C           -2.96733863178047       -1.16801089014878       -0.37244718718139
N           -4.15225959766003       -1.62384649732616       -0.84977544702255
C           -1.92420291016941       -2.06910131179367       -0.26912034099155
C           -0.59236581221773       -1.88721087151476        0.12030117190733
N            0.12533522036469       -2.98661228007728        0.36455217172927
C            0.12710025767409       -0.63728197191390        0.16004467419264
C           -0.44104612041397        0.67715274229597        0.11728903799973
C            0.39512956618353        1.78199015192963       -0.10211915848692
C            1.77813790901192        1.70085454418219       -0.22386519660190
C            2.53145646195168        2.85890483882952       -0.49618714452925
N            3.11133798256322        3.82599461756665       -0.71039439416438
C            2.37482904141037        0.45295083303480       -0.04296726651979
N            3.65532614118017        0.06635129370313       -0.03866636211239
C            3.58522213030526       -1.25807223624992        0.15828501511038
N            4.69280237457989       -2.03360046451242        0.18320114206700
N            2.34662260851424       -1.77467206836823        0.28305432586068
C            1.52770906285093       -0.70256001484169        0.15998465479117
C           -1.82892462445063        0.98133970268256        0.37809019158713
N           -2.08544159795286        2.18734760629766        0.92916458712074
H           -4.96744778020472       -1.03583999770811       -0.82717850737238
H           -4.27069116050402       -2.60033778003183       -1.04986458355595
H           -2.18884622611636       -3.09670369671850       -0.49644113812209
H           -0.28221636525807       -3.89187338920963        0.20049513394741
H            1.15535592389931       -2.86067016394015        0.42796680705492
H           -0.04552232306292        2.75736873745844       -0.25579779884321
H            5.56402277301902       -1.54593638898783        0.30163765406166
H            4.60750190722961       -2.95070866347494        0.58513784317931
H           -1.33662457920245        2.79131941133551        1.21426678969527
H           -3.03604735507294        2.48317963927877        1.07641243203045
