27
 energy: -42.154106770250 gnorm: 0.000780264406 xtb: 6.6.1 (8d0f1dd)
N            4.61289412262330       -0.75289132260203       -0.26001402865068
C            3.31849080357356       -0.34537574754606       -0.09600751937899
C            2.17163271701506       -1.17055525387473       -0.19314147159036
C            1.08380641113391       -0.31781270442561       -0.05285834733849
C            1.67620651604772        0.99865696285083        0.14099521175630
C            0.86155082889138        2.08336233967457        0.36721173328071
C           -0.51652460944859        1.91274700314077        0.30293229514557
C           -1.14351424425969        0.68559742982497        0.07833939297301
C           -2.56294228072473        0.68621339924660       -0.13808152087347
N           -3.13991356583872        1.88423064593052       -0.43802641902023
C           -3.46059994597992       -0.37659646630369       -0.01430095508485
C           -3.23208215657597       -1.72265944968594        0.20342532716111
C           -2.01991464647057       -2.38631104550036        0.20502779572727
C           -0.75767835232984       -1.83774394951454        0.04166033157700
C           -0.32023014990213       -0.51588013822546        0.00184046736169
N            3.02315388477996        0.93982180193640        0.11300609760408
H            5.30515538429363       -0.08330702129080        0.03444747232015
H            4.81914507063275       -1.71667415772785       -0.05593897174648
H            2.19202813337431       -2.23093348107947       -0.36050200454570
H            1.28336193884739        3.05559303967828        0.57047112912099
H           -1.12254324140992        2.78845162108803        0.48591743929052
H           -4.11443876369434        1.89940592124515       -0.68454329263212
H           -2.57089129793877        2.64312168954987       -0.76694097555795
H           -4.50362055793887       -0.09118550510718       -0.10311325962579
H           -4.11703955210618       -2.33509637269564        0.32516805794942
H           -2.06089739000161       -3.46187654954007        0.31967161935280
H            0.04432388210687       -2.56356901034652       -0.00149748867565
