28
 energy: -45.876930116861 gnorm: 0.000815904259 xtb: 6.6.1 (8d0f1dd)
N            3.85147677418224        1.22768616544401       -0.95489301577317
C            2.75340633540191        0.68326497280632       -0.36230471613836
C            2.74384585712217       -0.68323405940119       -0.07562057829752
C            1.64607399588128       -1.45161872733128        0.30075629724028
N            1.90801188435263       -2.72610862931968        0.69493727663729
C            0.27201967228896       -1.07515233889291        0.13464388166143
C           -0.68991716976536       -2.10538825346737       -0.05255791620660
N           -1.97359538229837       -1.93828860184104       -0.21789589371646
C           -2.44504532885588       -0.69524303746320       -0.22778858767812
C           -3.74789559430457       -0.23694445081201       -0.37838609263382
C           -3.70402860150062        1.15895078895810       -0.37339184413472
C           -2.39999858393684        1.60430904440599       -0.18354807527384
C           -1.56977565692523        0.47815876170223       -0.07530279116757
C           -0.20922273945026        0.26647584489906        0.14274143858830
C            0.65503394486620        1.38175340883844        0.49321869771110
N            0.11875305605179        2.35596118205242        1.24460765898429
N            1.88032466049618        1.57630173058468        0.08715096651511
H            3.80215474766572        2.19976526655589       -1.20410014102574
H            4.48897468129721        0.63706215583222       -1.45671181459741
H            3.69370954789077       -1.19852608465146       -0.15588488733426
H            1.17957759254190       -3.29712127526383        1.08087417843719
H            2.86098022606568       -3.01928756277379        0.81294900393060
H           -0.36207761303646       -3.13462258540564       -0.13536545791910
H           -4.62192933655806       -0.84802959554321       -0.49766248211704
H           -4.55900823935076        1.80324673795399       -0.49381663854459
H           -2.09562839686006        2.63752681350725       -0.20529994742588
H            0.66166678854503        3.17734332568887        1.44585770454281
H           -0.85697182810693        2.31210106853731        1.48537029473595
