28
 energy: -51.469508159672 gnorm: 0.000528857114 xtb: 6.6.1 (8d0f1dd)
N            5.14592552704729       -1.54438398160160       -0.45319410187281
C            4.17650003008830       -0.94208366119539       -0.33911091897043
C            2.98501688842887       -0.19561838913760       -0.19148538367892
C            3.04962455006277        1.17398831857536       -0.47140020913833
N            2.18969997174669        2.07509133232140       -0.08434943556668
C            0.96533668429531        1.95636274949738        0.36720950675494
N            0.53425779304833        2.96290546955190        1.14070507516562
C            0.03157101348356        0.88950648189780        0.04247968238742
C           -1.31229833996130        1.18640459265836       -0.18850645255907
N           -1.74850240916475        2.50357034695510       -0.30759294497257
C           -2.28564258760310        0.15304982732985       -0.24548473141564
C           -3.62563689879796        0.48857205598287       -0.52594968431163
N           -4.69278498988555        0.82848506227558       -0.77748058239856
C           -1.90986247993687       -1.15328284281852        0.00731238204572
N           -2.68033019664925       -2.25860242612464        0.05435589056642
C           -1.84601799636631       -3.26049477616984        0.29181456544887
C           -0.49815292056784       -2.85853840448216        0.40197841816437
C           -0.50346139497851       -1.48212103594210        0.23360715202093
C            0.49393586236026       -0.47882440860629        0.15140952433374
C            1.82546839251742       -0.89599096564285        0.16056633588653
H            3.93367310059623        1.56923162287207       -0.95910244790093
H            1.17639321374801        3.69921824294330        1.38199210604629
H           -0.42480296146167        3.00300074684396        1.44275976323928
H           -2.70180453471217        2.58348547633945       -0.63573921573014
H           -1.11930856739536        3.13421608671438       -0.78220414703750
H           -2.22309545321835       -4.26308650751469        0.38832737511038
H            0.33153924994612       -3.51154917117020        0.59113568053147
H            1.96882120052968       -1.95617214545249        0.32827411815150
