30
 energy: -54.920749666403 gnorm: 0.000604407400 xtb: 6.6.1 (8d0f1dd)
N           -5.24900803775292       -1.89929720914678        0.03297369819582
C           -4.17452950633324       -1.48827547943629        0.03299253807831
C           -2.86271000000632       -0.98005011539875        0.03344216407926
C           -1.84453439148854       -1.93735985945741        0.12499040370332
N           -0.54911109041345       -1.84365662353639        0.10501476487258
C            0.22772342027814       -0.75760666620629        0.04072065988593
C           -0.14952342821414        0.65690825722619        0.04219365393426
C            0.86070206588163        1.61263357263154        0.08938437900183
C            2.23393273969954        1.33385395429166        0.08485255414132
N            3.13641049502534        2.35055281090352        0.14053107800685
C            2.61021525128937       -0.00549289860155       -0.02276415101041
C            3.82964767398654       -0.71436539733183       -0.10704812632320
N            5.09759435368476       -0.22939637984039       -0.15650082666431
N            3.61822765569258       -2.05652028404595       -0.10709417827612
C            2.31327811433033       -2.24656464826512       -0.05051486185753
C            1.59746290775524       -1.02011552881602       -0.01032180857331
C           -1.49770824505138        1.13635360793330       -0.01427954079434
C           -1.65467621715581        2.53637796616657       -0.07468659610821
N           -1.84152926148012        3.67183160094763       -0.12231415260657
C           -2.71921892264521        0.43392758525736       -0.04108249121467
N           -3.86351652213103        1.14815902132272       -0.12788619399350
H           -2.19006345234995       -2.96601258086732        0.21378317360337
H            0.57731527210190        2.65535453980511        0.13623499444894
H            4.06744818410370        2.14182762380501        0.45785696439426
H            2.78502624857190        3.26761795464913        0.36500238234557
H            5.79674974328259       -0.93337591473917       -0.33974812655158
H            5.24965127377382        0.66329707112107       -0.59736538894502
H            1.89438481440460       -3.23432961217411       -0.04724986662434
H           -3.84147241927531        2.15296483376681       -0.16639414125203
H           -4.75079656316413        0.67403555183612       -0.13565332329495
