25
 energy: -43.508815507594 gnorm: 0.000665022509 xtb: 6.6.1 (8d0f1dd)
N            0.47945155818994       -3.87879536864282       -0.00343489302993
C            0.25620161798189       -2.75194271755660       -0.00268505373592
C           -0.14445381492151       -1.40040325486724       -0.00197154590414
C           -1.53605699933857       -1.13221999115450       -0.00242398913699
N           -2.42649125570256       -2.13515147237588       -0.00391721633826
C           -1.91995456548544        0.21421456141791       -0.00088432915228
C           -3.15021267698493        0.87411702353616       -0.00032951921282
N           -2.98961370754785        2.20676285772635        0.00112382270752
C           -1.68504808402145        2.45260995044969        0.00140583333675
C           -0.92469264910690        1.26118262118848        0.00020661094940
C            0.45371227962152        1.00751984045392       -0.00035209495292
C            1.34552874115029        2.08930443125306       -0.00210744929796
C            2.72937626203290        2.10718192690025       -0.00345792764624
C            3.60027900654889        1.02952284907360       -0.00150921087094
C            3.24764881663325       -0.32355295399972        0.00226066760146
N            2.08718561357905       -0.91450863854851        0.00198553972560
C            0.85105362927517       -0.40535212173079       -0.00033522037239
H           -2.11082314513804       -3.09119180649205       -0.00456023116234
H           -3.41056298414440       -1.93543161742899       -0.00363165053735
H           -4.13900462584495        0.45194572332073       -0.00091071051683
H           -1.33619605745283        3.46890326880872        0.00262333920937
H            0.86787693314467        3.06045383910285       -0.00322160305309
H            3.18503671155346        3.09018005752062       -0.00575589548371
H            4.65954404926402        1.24769506686686       -0.00241066514983
H            4.07054983625074       -1.03491446964296        0.00543993558773
