28
 energy: -52.274981049032 gnorm: 0.000415807990 xtb: 6.6.1 (8d0f1dd)
N            5.12365507408189        1.06449542738391       -0.40791822997520
C            4.00001425179218        0.85431702594296       -0.29577253657278
C            2.63284947333367        0.55909166040355       -0.13024979651587
C            1.70681415066699        1.55188155132761       -0.39120479553452
C            0.31652694222009        1.53964219445129       -0.22261975594929
C           -0.25241012784463        2.81064506025708       -0.48946016548831
N           -0.62160803879954        3.86685435918825       -0.74302951332989
C           -0.55715854467514        0.45306215524398        0.02559874983094
C           -0.07111698194304       -0.93338463048029       -0.09194768849515
N            1.14958842888347       -1.34967963071819        0.16247732564393
C            2.30114629309008       -0.75893500367563        0.33934545308867
N            3.25731603733381       -1.49924095514662        0.92681396621652
C           -1.00262877125654       -1.95508687629812       -0.40581014899557
C           -0.49942387128160       -3.24986194734141       -0.65144525533465
N           -0.10290523584849       -4.30625181067688       -0.85870541069171
C           -2.37680454150757       -1.73154878427395       -0.38551226193643
C           -2.84761870558388       -0.48260546858677       -0.03328775590790
C           -4.15463592214673        0.01244697712054        0.14038212142074
C           -4.06441838872811        1.35372514884688        0.50598903945504
C           -2.72947612011872        1.73772253625316        0.53756837995802
C           -1.93264948438421        0.61800641037898        0.19295401240476
H            2.11964218088386        2.50013250660918       -0.72005946979154
H            4.21034662134492       -1.17879068226864        0.96024085977029
H            3.04545592076420       -2.45840053850049        1.14514340589979
H           -3.05343268122546       -2.54988038933336       -0.58699507963184
H           -5.05805739033423       -0.55399542125099        0.01055081680059
H           -4.89655774463532        1.99489286718744        0.73081861034148
H           -2.37039908968135        2.70733884125727        0.82389979111926
