31
 energy: -55.446682858047 gnorm: 0.000575695761 xtb: 6.6.1 (8d0f1dd)
N           -2.92205504873255        3.86734387136575       -0.27330436572585
C           -2.47149965976158        2.81465417831258       -0.18936797684862
C           -1.93652836183976        1.50871679161085       -0.08383372382870
C           -0.57374854360563        1.44708158214222        0.15914216864029
C            0.32978746481654        0.37984772849181        0.13836178827687
C           -0.01070585161429       -1.01533842203413        0.01207354053790
C            1.00154065059016       -1.93898730361701       -0.27464212446083
C            2.34441992996586       -1.59578465096675       -0.35225395390590
C            2.71965924294368       -0.30377394071487       -0.06936492704308
C            3.98638293401144        0.33142944723813        0.00282102899211
C            5.21555225970183       -0.29791949057432       -0.18378347149791
N            6.22075457093950       -0.83592343250853       -0.33826540376060
C            3.75788603358127        1.67901931509779        0.29620605898531
C            2.38474243649526        1.91119034904246        0.39898392509783
C            1.70831196067295        0.70912666818768        0.18765871368564
C           -1.32878059494976       -1.54246276637148        0.26068997285054
N           -1.38772349806923       -2.82115573453906        0.68752697807401
C           -2.56932592865008       -0.90462663658027        0.05875941712346
C           -3.70358595121744       -1.74152441299584        0.15519931880980
N           -4.63187454644936       -2.41548726657810        0.23523723221567
C           -2.86554719406306        0.44820048430865       -0.22524402212879
N           -4.13154241560057        0.76413045017855       -0.57157153903235
H           -0.11060464805188        2.41860454178526        0.27769777483973
H            0.73660868338543       -2.96203990734079       -0.49983854046238
H            3.08149138212773       -2.34362156341212       -0.60663595576243
H            4.52666844003200        2.41959426747521        0.42631746605775
H            1.95436497956937        2.86986948150111        0.62396004802525
H           -0.54836771495138       -3.31945876202815        0.92201734283756
H           -2.27700847067783       -3.26347484611860        0.85160004662323
H           -4.84717523592696        0.05725385294283       -0.59733417701868
H           -4.39611016037228        1.72943545869893       -0.67813518879726
