27
 energy: -46.951306497350 gnorm: 0.000542918922 xtb: 6.6.1 (8d0f1dd)
N            3.39022770384395        2.21213353101993        0.31389198556140
C            2.89734952540010        1.17313598309579        0.21487961249501
C            2.30574858083811       -0.07525175437633        0.08396568837370
C            2.99353492645979       -1.29723535740939        0.18730744775272
N            2.19766448084411       -2.35808943004428        0.11894083863696
C            0.94639748943609       -1.88029610938489        0.00919134427747
C           -0.23330380291254       -2.60503908788490       -0.02365646015579
C           -1.44727610129401       -1.93968461814123       -0.03468562239933
N           -2.61807390336297       -2.68448184507363       -0.03719700544308
C           -1.50296007190374       -0.51683666366377       -0.07193940176103
C           -2.77611130252755        0.09465249569659       -0.16624254509317
N           -3.16368431414045        1.24529050909043        0.28462341492117
C           -2.44498213626743        2.29494360086663        0.63231981821139
C           -1.19341935439026        2.60116657407473        0.15254601267314
C           -0.28062272104851        1.67870051054512       -0.39636687377783
N            0.72171621481665        2.17162810508938       -1.13057983324076
C           -0.28382072156373        0.25871419598922       -0.12876619371329
C            0.92646442419879       -0.43088935290570       -0.04355856723832
H            4.05582928315307       -1.41363482741646        0.31046097707617
H           -0.19789590166577       -3.68370658371898       -0.00509399819221
H           -2.47571290103733       -3.66399855318111        0.15672374494921
H           -3.41124875167104       -2.29873206975724        0.44805788091616
H           -3.58722484087946       -0.50423673246734       -0.57007882827670
H           -2.99133395845589        3.03389170410463        1.20688044238472
H           -0.86580100732515        3.63199541565124        0.19292326219600
H            0.88161099769869        3.16472297065393       -1.17480420629794
H            1.46646928415648        1.57161503194756       -1.44708647573591
