30
 energy: -50.126091836291 gnorm: 0.000555791065 xtb: 6.6.1 (8d0f1dd)
N            2.61813627356910       -3.35965864671796       -0.11698045764608
C            2.19040125271436       -2.28979707918891       -0.07055701747340
C            1.76784094793802       -0.94908506647850       -0.02338473868724
C            2.85490856876056       -0.02867466928755        0.09327085685843
N            4.09002740215131       -0.54820366154564        0.30537101555015
N            2.86636771726295        1.28555332198684        0.02081890889514
C            1.81648489058897        2.09712415702916       -0.10101758127872
N            2.19113047245644        3.39686828096607       -0.28387029921436
C            0.45255699275207        1.82117114364869       -0.06503188981729
C           -0.24643383244889        0.60826541565331       -0.01489733805986
C            0.36937863207396       -0.71216264337713       -0.06061754487635
C           -0.46082611368547       -1.84311021949536       -0.12577267088393
C           -1.83911343482016       -1.77779731097795       -0.09999048432437
C           -2.45005137266961       -0.54326245580484       -0.00385079044709
C           -3.81508493784851       -0.15080624907801        0.06492248135783
N           -4.89037868649095       -0.98236689245257        0.00166227392722
C           -3.84939288204826        1.25129880281515        0.14592742995673
C           -2.55459364785616        1.73580383613295        0.12826879859903
C           -1.64967236620669        0.64895025560682        0.03696826139034
H            4.86504185709989        0.09016018281109        0.29096835697329
H            4.25271931446188       -1.53888757623121        0.26758033694412
H            1.51976047696699        4.13520293558532       -0.17678069419964
H            3.16462770819672        3.61033381337504       -0.15730718278633
H           -0.17412282546541        2.70213847108118       -0.10396785439317
H            0.00827834690749       -2.81394503444445       -0.18587987061747
H           -2.41534250427741       -2.69208818040829       -0.14862292171293
H           -5.78887453852564       -0.61556008611011        0.26557594544974
H           -4.73959737368464       -1.96413158181500        0.15802609398370
H           -4.74429880629833        1.84329819322914        0.21371506460353
H           -2.29944854047467        2.77827474809271        0.18956584422896
