27
 energy: -46.151901497966 gnorm: 0.000512862321 xtb: 6.6.1 (8d0f1dd)
N            4.00160345796592       -0.42054641971667        0.12632610807794
C            2.79929600118588        0.23868808540079        0.15471859199851
C            2.62861043687766        1.62946288677058        0.25024894265846
C            1.27264744027720        1.93266811799409        0.20855384573836
N            0.72280125358121        3.18143952096175        0.26500212812602
C            0.54360152018538        0.70505852939268        0.09134382891328
C            1.52481511991988       -0.35816553639915        0.05538975434835
C            1.06927596682278       -1.65075628555795       -0.20332503160618
N            1.90559318108317       -2.69495952564923       -0.47404219734245
N           -0.22570025946280       -1.96023783239027       -0.10836924142815
C           -1.13167374508190       -1.02636596466152        0.12146150538947
N           -2.29992520310233       -1.43677733575967        0.58669679867724
C           -3.44154388821216       -0.81079241876151        0.64840121156758
N           -3.91131017149674        0.19252442527939       -0.06067893823031
C           -3.13097470504233        1.09571596824572       -0.64586290176201
C           -1.78015738937845        1.31955675770009       -0.49574515348989
C           -0.80242601917747        0.40988914948735       -0.02211917063517
H            3.99677741552903       -1.36074362314033        0.49122032911592
H            4.80012725205155        0.12758435388011        0.40823211325348
H            3.42500068888159        2.34467089167664        0.35146358299466
H           -0.23069591287095        3.24394704488700        0.58484104662986
H            1.33053407694152        3.92319129593352        0.57499117922468
H            1.43087486769776       -3.53518729173750       -0.76647767337093
H            2.77897696973788       -2.48801310594140       -0.92951057847964
H           -4.17033429756754       -1.27357784098418        1.31124707273440
H           -3.69011230039229        1.81654180369252       -1.23714337830563
H           -1.39066564625279        2.23096123489684       -0.93474297909858
