22
 energy: -39.551496782544 gnorm: 0.000601950227 xtb: 6.6.1 (8d0f1dd)
N            2.37885169397705        2.32159016211795       -0.55738761668079
C            1.46450501351386        1.39515016583571       -0.23813317943317
N            0.19015776846216        1.80789248006435       -0.23322827675428
C           -0.75335835270252        0.92794075612126        0.01379534747093
N           -1.87976372307353        1.27089211824822        0.57971554380034
C           -2.98771035978763        0.58929671299417        0.75120445907470
N           -3.51098243644932       -0.34608713737105       -0.01077007114578
C           -2.72715488877458       -1.05157129192119       -0.81732546522636
N           -1.45366573827589       -1.28594321021746       -0.68079800433324
C           -0.51038645914417       -0.56060813269733       -0.13395143804647
C            0.78909359643676       -0.94541847037773        0.15696804144719
C            1.43424397185152       -2.18645143094867        0.35021722059137
C            2.79395239427937       -1.95003747355407        0.42702117517934
C            3.04184325516075       -0.57911071296037        0.26158564797778
C            1.81844184403288        0.07283034412380        0.11129604406741
H            2.06184467527533        3.25427350304943       -0.75933848162634
H            3.35945370518817        2.12430139296550       -0.47577800167490
H           -3.61607908973832        0.94588593802877        1.56202219641744
H           -3.23080608255950       -1.63525395825489       -1.58022514847260
H            0.93894473862108       -3.13548904248358        0.42888998363302
H            3.55147774523824       -2.69681787817399        0.58086026383490
H            4.01584369266830       -0.12258876378922        0.25218550459903
