31
 energy: -53.846057677876 gnorm: 0.000417804965 xtb: 6.6.1 (8d0f1dd)
N           -0.04082536926931        3.95959679683337        0.73991741654104
C           -0.19356884799014        2.84147380426006        0.51222746926648
C           -0.45513248973416        1.48419090516703        0.27223686711490
C           -1.80016005580244        1.05137910634756        0.23826465262994
N           -2.80927385101443        1.94243309213545        0.45010412949267
C           -2.04266358343517       -0.28471717562849       -0.08325173786790
C           -3.23653703068101       -1.01838011383982       -0.26579904585347
N           -4.51941226083699       -0.50901933743044       -0.26846486740275
C           -2.89217311803666       -2.37587328313433       -0.41397064431390
C           -1.52009640224125       -2.50454215946441       -0.34412538846898
C           -0.95424111091452       -1.22271514071549       -0.15787190247079
C            0.37923737766598       -0.83807888502800       -0.00569491103750
N            1.28664421378643       -1.77849990921637        0.20467003276223
C            2.60214961358002       -1.67849333692972        0.30389150475254
N            3.19054343583979       -2.84039169255118        0.70697033121050
C            3.43672367852871       -0.61370442132560       -0.06347231282110
C            2.99509879888312        0.66798836003014       -0.39378970524241
N            3.88489714746927        1.55409041796524       -0.91913742889510
N            1.79201474152366        1.20242575091038       -0.20750448050434
C            0.63547317676362        0.61783104951338        0.03045684214049
H           -2.54759900644532        2.84831211250362        0.80879696980289
H           -3.69404173778106        1.57333796104505        0.75609767041294
H           -4.62282976171130        0.39762435084457       -0.70119940956476
H           -5.22008251296537       -1.17042497297256       -0.57176484710573
H           -3.59917443046735       -3.17169648128743       -0.56836209119322
H           -0.95750461001400       -3.41379402398090       -0.43674285612983
H            4.15547298496780       -2.85334843770448        0.98164459293889
H            2.57943541251533       -3.56454086025393        1.04079397176430
H            4.50189407356416       -0.80330875419832       -0.09870548378503
H            4.86919256999831        1.35900015380797       -0.89133071756290
H            3.58375600374087        2.51210051911092       -0.97118060631596
