31
 energy: -53.840725176219 gnorm: 0.000469319546 xtb: 6.6.1 (8d0f1dd)
N           -3.10665622686095        2.92761287018878       -0.32177483422937
C           -2.88976495647070        1.79617288626970       -0.24335323363530
C           -2.61635982774419        0.44034014322290       -0.14201718174985
C           -3.55601160014413       -0.59185954901759       -0.31307614004141
N           -3.02579142626550       -1.80971247153016       -0.26750612781762
C           -1.70900853635733       -1.62742827474279       -0.10404205108727
N           -0.78996884712831       -2.58104450518992       -0.11002356034098
C            0.46958424618069       -2.23684610142160       -0.01244966052886
N            1.36147212524905       -3.33049220906992       -0.12211895040370
C            0.94326455751025       -0.90211596258265        0.18753654869783
C            2.36071813311319       -0.66884522468823        0.32185065925051
N            3.10997200732291       -1.65164755595276        0.86094649643372
C            3.03611336997659        0.44731826731576       -0.15851960252461
C            2.55727958188744        1.73199208034238       -0.42296948980067
N            3.42544507155920        2.62603671559181       -0.96810496019320
C            1.33576215878947        2.23377597885505        0.04502847167118
C            0.26240824962009        1.52537812460425        0.54418512125571
N           -0.63356182333293        2.17212772011347        1.31090815471518
C           -0.03156871179811        0.13289699765896        0.23613448499977
C           -1.36467138763529       -0.22338437112596        0.01952524707387
H           -4.61195201853621       -0.46169511478987       -0.47348668879522
H            0.79753327229984       -4.16459431943252       -0.25317583728403
H            2.00845396722948       -3.23139099907341       -0.89696603741340
H            4.11202022428924       -1.57520722167827        0.85747051450866
H            2.67505759293388       -2.54424651001771        1.05223357956286
H            4.10698904616159        0.32315837725372       -0.27889181717203
H            3.09148443085098        3.53294221719842       -1.24037155449935
H            4.28220856797866        2.30165170314391       -1.37885492100641
H            1.25382820047179        3.31337863988304        0.08247591364882
H           -1.50024901081000        1.71804361077602        1.54914887747183
H           -0.62912214844045        3.17789599669530        1.34820763763353
