28
 energy: -46.674554492801 gnorm: 0.000399818353 xtb: 6.6.1 (8d0f1dd)
N           -4.84057205152040        1.37259364401154        0.30348583554132
C           -3.79578115482597        0.89587756919904        0.21655959210782
C           -2.53120607884226        0.32334589841063        0.11474865472773
C           -2.26413604479022       -1.05970414123352       -0.04785700904354
N           -3.20525701031729       -2.03278701347474       -0.10210689914485
C           -0.86299677315056       -1.22786999761816       -0.06766921322720
C           -0.06241911936054       -2.34953496562159       -0.20066956080455
C            1.30744686672932       -2.21481895418159       -0.11115576933531
C            1.93282122252349       -0.97022968012640        0.07108759400266
N            3.20740816778085       -1.01723639145157        0.44889737330340
C            4.13021217974536       -0.09768050236363        0.50171526272843
C            4.14785304030125        1.17408076093188       -0.06414932133958
C            3.02105227990391        1.86316476449449       -0.50786775536680
C            1.69847812521201        1.48996434005243       -0.41582838992146
C            1.12998908449845        0.24558466279819       -0.04383170037214
C           -0.25125492698043        0.08414488204929        0.03768830287235
C           -1.30753513349230        1.02639479524855        0.17506988511245
N           -1.20442738239752        2.37434932506487        0.33650868311368
H           -2.93429070212632       -2.95753370350539       -0.38488487275931
H           -4.16605512888723       -1.76487867374099       -0.23089225411474
H           -0.49865449504955       -3.33159157647364       -0.32186783925450
H            1.94586791746384       -3.08406619165610       -0.12704474431501
H            5.03599823590809       -0.43420587000308        1.00124714932905
H            5.10040804390569        1.68269581158634       -0.11604699651859
H            3.20207145132245        2.85149458809951       -0.91564252475010
H            0.98362802738573        2.21002864339854       -0.79335532338906
H           -0.34775262073444        2.73006797942508        0.73040079765270
H           -2.04814398320517        2.85412429298005        0.61222271976482
