27
 energy: -51.749556221178 gnorm: 0.000613663181 xtb: 6.6.1 (8d0f1dd)
N           -5.73036058437272       -0.23379851423034       -0.48006960589421
C           -4.60458099599736       -0.38253725154388       -0.31033775280009
C           -3.22194508130407       -0.55593412953670       -0.10190972522431
C           -2.77043440563691       -1.80881012840165        0.36734022396123
N           -1.57129779540827       -2.27928260937903        0.23878082191033
C           -0.44341089003563       -1.70650586419975       -0.09261703363019
C           -0.07249386735028       -0.36207330578528        0.05319789697356
C           -1.05147399793130        0.74119802497439        0.04727612448446
C           -2.40640982477388        0.57985575164927       -0.20742274835346
C           -0.52517150597559        2.07427826930706        0.14290958387011
N           -1.34704887304662        3.15329776877313        0.25759305277770
N            0.76280346817292        2.38626611426894        0.11953640025663
C            1.64927777538379        1.41886241144100        0.03602526230128
N            2.96999319136217        1.57779823569551       -0.04519236007158
C            3.49370532918598        0.34445288798316       -0.05703849447595
N            4.81376119404261        0.14412618057472       -0.11974206813586
C            2.49539680769514       -0.68790095865292       -0.00633296814703
C            2.76602652596176       -2.04835027632717       -0.00384346187083
N            3.03297282215901       -3.16947938860822       -0.01048595590192
C            1.27309626492273       -0.00394789485860        0.04302042665570
H           -3.49144295094279       -2.48728650367291        0.81057667417726
H            0.32900308932319       -2.40418225289525       -0.40060863740507
H           -2.95156606922082        1.48434670154746       -0.45608178392216
H           -2.27429911546536        3.06844053524742        0.63324201952914
H           -0.86280395336703        4.02227650706160        0.41555205653301
H            5.19165632492794       -0.78652696473143       -0.13405069053117
H            5.42031905359106        0.94352199229853       -0.16253938756733
