30
 energy: -55.724943568992 gnorm: 0.000750439238 xtb: 6.6.1 (8d0f1dd)
N           -5.58801041894074       -0.66258548699634        0.80782046771830
C           -4.48016781463693       -0.43673179698533        0.60067393926386
C           -3.14835952429498       -0.09755497458206        0.34689385361739
C           -2.04184885536393       -0.94896433098246        0.36148402179443
C           -0.88677690214771       -0.19750875413047        0.07172559930694
C           -1.30655644240125        1.17821817606722       -0.11189085385482
C           -0.38821752158504        2.16355847069319       -0.39806285957827
C            0.96571556521525        1.84144208034128       -0.38636327140792
C            1.92610775576486        2.85396218297966       -0.57903262650596
N            2.68769168506405        3.69662482301051       -0.74540987646002
C            1.43073678896727        0.52745476640321       -0.10932475097352
N            2.71566515017826        0.45096625186098        0.17400017835328
C            3.54835373636984       -0.55217170516629        0.31956637272586
N            4.71751115486758       -0.23318260894156        0.91096299984506
C            3.36584288550819       -1.87758764598604       -0.15827377815731
C            2.15270297320833       -2.43964941455314       -0.44890234233593
C            0.85855358103182       -1.90086541988299       -0.32045263782039
C           -0.13446297316468       -2.85544756279235       -0.63620677362940
N           -0.86375891754550       -3.69277723237116       -0.93144876189115
C            0.45949738841929       -0.56497547381408       -0.06465868888316
C           -2.71768281210445        1.22199530158947        0.03568898539735
N           -3.51732472704077        2.29568497738451       -0.08032583211979
H           -2.08761183682382       -1.99418226619703        0.59843364317589
H           -0.68454920783138        3.18739124152913       -0.58134884892097
H            5.47743147477390       -0.88780111680186        0.94690039639076
H            4.87906812132404        0.72993983792051        1.15091982617649
H            4.25088217244637       -2.49004685530804       -0.25823689749245
H            2.17165597014497       -3.47263825406100       -0.77842393100951
H           -3.14028271689799        3.19747683602620       -0.30840612880480
H           -4.51012916730397        2.19205021124540        0.03919016898058
