33
 energy: -53.273262621813 gnorm: 0.000429282188 xtb: 6.6.1 (8d0f1dd)
N           -2.96953874191498       -2.57960274662494       -0.38015471229684
C           -2.59559424111462       -1.49297718603952       -0.25540660932931
C           -2.18337470958622       -0.17978911603096       -0.10295876848838
C           -3.03859005342055        0.93227246897337       -0.26538808736642
N           -4.39881287244632        0.85248229330201       -0.42397073732711
C           -2.28959290503130        2.11169221442136       -0.15017418562482
C           -0.95889676896252        1.76084036879677        0.03909431996075
C            0.18823276890535        2.51264812148361        0.30176567253726
C            1.41875929484238        1.90751334981266        0.35726773433065
N            2.55088445837866        2.72452083553312        0.60176301580589
C            1.57687855009891        0.49624958284859        0.11466310674893
C            2.79348001925743       -0.00795432020238       -0.40492065893440
N            3.82135229444778        0.84969151981432       -0.65780597829075
C            3.06439255412093       -1.33710960789951       -0.81267112038970
C            2.42008533472812       -2.50555483579341       -0.51441598659172
C            1.28137045132110       -2.67706856183672        0.26423606895408
C            0.39035462013358       -1.69864959705832        0.65503877300398
N           -0.56807304030013       -2.04744030729599        1.54932102147723
C            0.37616024223955       -0.30892605981960        0.23654317265850
C           -0.85349521704350        0.31968923172936        0.08301191460832
H           -4.85079688234471        1.65534544600056       -0.83041505995188
H           -4.75670756843049       -0.03949971356153       -0.72864390901154
H           -2.68438016071116        3.10879852071988       -0.21609646450088
H            0.10858344102794        3.58142144388714        0.45326764413974
H            3.14776455345796        2.35441532265832        1.33190468328366
H            2.27131663196499        3.67284840786537        0.82070781958658
H            3.63411762786469        1.84322076820522       -0.62208856148013
H            4.56110964093016        0.52435398259120       -1.25635498099790
H            3.97485341554768       -1.43978384973946       -1.39264464751284
H            2.88715738708077       -3.41308232546527       -0.87606036715039
H            1.04038881769760       -3.68891549742176        0.56289874938824
H           -1.31847211173048       -1.40137580408903        1.73128763144293
H           -0.77634426740832       -3.02283278476391        1.68205245441836
