28
 energy: -46.680617612050 gnorm: 0.000600442601 xtb: 6.6.1 (8d0f1dd)
N            0.54127613363236        3.82829790099816        0.02266852112000
C            0.19289238811404        2.72992295501963        0.01836818295264
C           -0.29976840131878        1.41601290992188        0.01266849402209
C           -1.70874775704416        1.27554429928653        0.00876760320071
N           -2.50234044670323        2.36568500900382        0.01910856167226
C           -2.23444963870993       -0.02029649669937       -0.00565973680874
C           -3.54350519799665       -0.51076443415846       -0.01680351387448
C           -3.48173272017986       -1.90940169148778       -0.02330112910968
C           -2.15844611706238       -2.31115954415236       -0.01470592246859
C           -1.34645801528044       -1.15476777998670       -0.00431945522285
C            0.04648336895177       -1.04226623283203        0.01001624944691
N            0.70983464089754       -2.19514995651660        0.03245147888621
C            1.99652654300520       -2.42926841039244        0.03760061852103
C            3.10118437515720       -1.59386771166948        0.00514475367916
C            3.09751322254578       -0.19260398384028       -0.02162684027308
N            4.30135314688095        0.43568670161801       -0.07519306861108
C            1.96140827157025        0.62714457164581       -0.01114223657694
C            0.60295761375576        0.32245992637204        0.00644967217900
H           -2.10441187905384        3.28915975694151        0.01970880637232
H           -3.49937980495298        2.25696285605196        0.00393716471441
H           -4.44838619517068        0.07144790075989       -0.01993520267463
H           -4.33602617533317       -2.56248450600559       -0.03329337206312
H           -1.78850782069106       -3.31784579807888       -0.01643504446622
H            2.21566022318957       -3.49536236418919        0.06849224650005
H            4.07226266072311       -2.07258832206026        0.00249466067074
H            4.35468562573699        1.43666691711751       -0.01877239837687
H            5.15128417941320       -0.09327757070030       -0.00484169115570
H            2.18758402672318        1.68916366233299       -0.02465773505539
