28
 energy: -51.475026686714 gnorm: 0.000796051732 xtb: 6.6.1 (8d0f1dd)
N           -5.40142974306971       -1.42965013520244        0.56760733783932
C           -4.41574473045345       -0.86267661173885        0.41711893445186
C           -3.19161141175515       -0.18029576194267        0.23432900423367
C           -3.16007086690515        1.17939684588358        0.53986848333705
N           -2.26315408294011        2.03742990345868        0.12214150058482
C           -1.06143600778444        1.83881022449791       -0.33983926092911
N           -0.52947200691391        2.80342598354804       -1.09618717143434
C           -0.20410997211594        0.68833450070446       -0.03495745545911
C           -0.74437751824626       -0.64553957015637       -0.16787276521516
C           -2.09428947898936       -0.95878101098923       -0.18258623190417
C            0.23701409792050       -1.72670398732219       -0.24685904033515
N           -0.13929619731416       -3.01647537141620       -0.50377346179770
N            1.52132087642970       -1.55234462673185       -0.09858249523041
C            1.99973156284229       -0.32905771294560        0.13153989403003
C            3.31421143165812        0.10264010755461        0.26555799309113
C            4.46727944225917       -0.67835939224993        0.21749524283461
N            5.43283068200990       -1.30215497271206        0.18129480370643
C            3.28246825365352        1.52553752832241        0.45651204671947
C            1.99722132274771        1.97811509930197        0.38677384982127
C            1.14073315659422        0.85122694531436        0.18097639258660
H           -4.00022596261907        1.62112787134131        1.06312348863322
H            0.42797688610344        2.74070683534227       -1.39913947641194
H           -1.08486734938692        3.60812275462700       -1.33443609241563
H           -2.35775367573632       -1.98344015024064       -0.41235073770078
H           -1.04452539904354       -3.35241311018356       -0.22542883691419
H            0.61856118104321       -3.67243366021531       -0.39007482985223
H            4.16089041406589        2.12335614858927        0.62066338510483
H            1.67342174694701        2.99051454766174        0.54929532572546
