25
 energy: -42.709114381611 gnorm: 0.000900022877 xtb: 6.6.1 (8d0f1dd)
N           -4.28808328813945       -1.11331933630976        0.00932635843737
C           -3.06286847331659       -0.55718341288037        0.02714408909682
N           -2.89923092303002        0.78696660177526        0.01445439759995
C           -1.57306476452802        0.93444866493054       -0.01101062927453
C           -0.77544219923314        2.06590597598588       -0.06294996284031
C            0.60720487878969        1.93948585989462       -0.05301024959287
N            1.36543926147745        3.10136217524114       -0.07306870362095
C            1.25364560975406        0.66750857933088        0.02086344001849
C            2.62102722868025        0.62792195740201        0.27085641754818
C            3.52772819098414       -0.42881018500258        0.19658455381575
C            3.24872917834641       -1.73014145016337       -0.19734828602087
N            2.09738906554060       -2.36679846867640       -0.17343766730053
C            0.90916891098448       -1.86432153927782        0.04887107628561
C            0.42268140168633       -0.55237338583360       -0.01568714054765
C           -0.95910244145269       -0.38606490938540       -0.00052906899723
N           -1.94364477499259       -1.30224362292934        0.01852697561529
H           -4.35782416050165       -2.09609085131094        0.20333481690186
H           -5.07222143110828       -0.51486314865550        0.19634575159662
H           -1.22784602844067        3.04585729747646       -0.11426855431128
H            2.23938677890393        3.07322461399336       -0.57230469867294
H            0.83009724197140        3.93508236291746       -0.26190475233178
H            3.07655321475817        1.58192564121847        0.50861451389248
H            4.56849640582169       -0.18141014852658        0.35972264075266
H            4.08353633980033       -2.35912582706752       -0.49460358644405
H            0.14146034044426       -2.61359254634676        0.21958970659406
