30
 energy: -54.143548416321 gnorm: 0.000908164976 xtb: 6.6.1 (8d0f1dd)
N           -5.04278110722153        2.21972863942407        0.81540708984196
C           -4.04606370381392        1.68185610861838        0.61063202388645
C           -2.87433254862239        0.96645327575684        0.36444068644759
C           -1.57764352897226        1.46791292725594        0.27075933566388
C           -0.70779570245232        0.38555723681920        0.05495855900877
C           -1.50529756619254       -0.81548454943320       -0.00833526407799
C           -0.86240962317671       -2.01218462770096       -0.37416272180428
N           -1.55760161994200       -3.15408973837763       -0.64170799378416
N            0.45626042307455       -2.10268168381688       -0.41815760396756
C            1.23557675859798       -1.03161997111112       -0.20838147824312
C            2.57051434631917       -1.29991289728228        0.05280341273528
C            3.60707474615248       -0.38738421513027        0.35006447458493
N            4.73772966714136       -0.89542856651284        0.89348212720420
N            3.66475412042590        0.91056854675584        0.10702116001001
C            2.65477093870553        1.64113051130842       -0.36917366370315
N            3.03055745783390        2.82131526898931       -0.91421165681450
N            1.35128824555490        1.45891144432163       -0.29517492976581
C            0.67619835324791        0.33248776814496       -0.14126957631309
C           -2.84040033314400       -0.45306218993096        0.19822301759259
N           -3.94518080386184       -1.26933201478100        0.19447797089609
H           -1.28915792411729        2.49745927488065        0.35993736880395
H           -2.50303721820615       -3.05501607568520       -0.97238232433633
H           -1.01076084447984       -3.89677403184791       -1.04856127781584
H            2.81255246667435       -2.35144498078580        0.14278760191390
H            4.83264723681250       -1.87695646252578        1.07421450805529
H            5.50182522513614       -0.27117958755221        1.07809137659267
H            2.31655954332684        3.49983394073352       -1.11051791936175
H            3.98638128546648        3.11167494448030       -0.81368881984034
H           -3.81010260531164       -2.20355805603932        0.55027251253919
H           -4.79517712325357       -0.82622313407468        0.51332879755181
