26
 energy: -42.438039758887 gnorm: 0.000550252242 xtb: 6.6.1 (8d0f1dd)
N           -4.29415933199233       -1.05050812751417       -0.30299804455974
C           -3.04967553865389       -0.48585351799385       -0.22659335390412
C           -1.82404002220256       -1.15051614638194       -0.19553203873250
C           -0.85115013677313       -0.14433952681573       -0.04665308193943
C           -1.62441256008164        1.09557449095441        0.01036711009607
C           -0.97333051609910        2.31613248000819        0.17317497969651
C            0.39677976681415        2.33607712885797        0.22624266914798
C            1.19723989570480        1.17459732132790        0.11016505519341
C            2.58439854697639        1.38000853866424        0.07599454362161
C            3.60860564364407        0.51422608201378       -0.25937467836970
C            3.46777077252090       -0.84459274714100       -0.52731280107430
N            2.48485916360370       -1.63208212380259       -0.18332931150960
C            1.27870193528579       -1.33223489192639        0.26183127808273
N            0.65641059218407       -2.34057495639171        0.89638305942890
C            0.53848386828733       -0.11545239874496        0.05106336285298
N           -2.92981214126855        0.85709102001723       -0.07451152773460
H           -4.35890893838393       -1.94601458344832       -0.75885895275690
H           -5.03009307095127       -0.39770749240145       -0.52069112861115
H           -1.68625827373240       -2.20403568213148       -0.35219410722338
H           -1.54900534472701        3.22657860537761        0.23567361440377
H            0.90614658252046        3.28497038491780        0.31909750454856
H            2.88578882109069        2.41147237422406        0.22389796423362
H            4.59708856530344        0.93648037648410       -0.37953654353810
H            4.29667407134808       -1.36523887968440       -0.99692968528510
H           -0.26836307328334       -2.20691102119756        1.26754870932495
H            1.15782905356543       -3.19709102057171        1.05466638870726
