29
 energy: -46.384597965264 gnorm: 0.000567687521 xtb: 6.6.1 (8d0f1dd)
N           -5.38860251532883        0.16112529147214       -0.68981734518874
C           -4.30372962821365       -0.13319462784576       -0.45324676535717
C           -2.96926725515241       -0.49236566412977       -0.15838097805440
C           -2.74827783251916       -1.84665741035556        0.12852665348765
C           -1.53407244098191       -2.44935631092130        0.36834230171840
C           -0.26112128928854       -1.88847597580010        0.30993374997864
C            0.18760905438069       -0.58230447221066        0.12465798364289
C           -0.68452454227597        0.61225888806206        0.08171917533836
C           -2.05813427336762        0.56655947420279       -0.13258786995885
C           -0.08548496004577        1.89712525930690        0.17771896733127
N           -0.88045737802835        3.03656041671048        0.26088917277760
C            1.29377345344563        2.06439671805723        0.10965256718672
C            2.13182041371188        0.97430868032520       -0.01895042074994
C            3.51734777588969        0.86431518112193       -0.12609847339477
C            3.83479916849909       -0.50048706673359       -0.17064734769478
N            5.09961588108723       -1.02453449306787       -0.22273957410664
C            2.65115625017031       -1.25506954087913       -0.08118582624805
C            1.57069275113410       -0.37370934582200        0.01031598738363
H           -3.63001994719893       -2.47584830034903        0.14684386733650
H           -1.56563730360788       -3.51119396071084        0.57829863396124
H            0.53927558363306       -2.60660269545326        0.43460844639527
H           -2.51741473438972        1.52657011104500       -0.34256649444688
H           -0.35922255749572        3.88266770764278        0.43411923491179
H           -1.70876181212254        2.96963970832521        0.83120854620270
H            1.70548345173610        3.06453653690955        0.14907937186440
H            4.21978866596687        1.67566867395402       -0.16708680463268
H            5.18184570918048       -1.98506677327955       -0.51284107445705
H            5.83064836955898       -0.41378324204218       -0.54832080411742
H            2.62124582942370       -2.32900436483272       -0.10210028520926
