30
 energy: -45.308184213128 gnorm: 0.000521479942 xtb: 6.6.1 (8d0f1dd)
N            4.30693813622606       -1.85185915176517       -0.13389597928588
C            3.10598441901613       -1.18754928620104       -0.07588848710532
C            1.94489011193195       -1.97232639704208       -0.07459309767130
C            0.64069400197944       -1.56179639522262        0.03452360794797
C            0.04005680899763       -0.29270490487353        0.02208103461115
C            0.73380637173266        0.97986151031387       -0.06639317753591
C           -0.02100249482835        2.13438908019280       -0.32441724241418
C           -1.40200620133597        2.14476145562715       -0.40220711026835
C           -2.10776263546717        0.98054168282365       -0.17207584619454
C           -3.47377007841866        0.68782029139989       -0.14073218534802
C           -3.60583928814639       -0.68179911950403        0.08839111551048
N           -4.79861756656402       -1.35879518837176        0.26929269894949
C           -2.32924626925413       -1.26466940909427        0.19143675796508
C           -1.37216166717411       -0.26180812181563        0.04222610369367
C            2.13677940538112        1.14132495371654        0.16273784175407
N            2.57853291965147        2.42415428979753        0.39642367793979
C            3.15067393014738        0.19061580002426        0.10703023038062
H            5.13501073066061       -1.32278135674202       -0.34680341658419
H            4.29925626382798       -2.80723359053098       -0.44683018990325
H            2.11055311847685       -3.04151691823049       -0.14097210851864
H           -0.07463187937296       -2.37258991941850        0.06906751661586
H            0.49198842145097        3.06399451276200       -0.52394965094417
H           -1.91953207372683        3.06773233777590       -0.62708526651434
H           -4.27851126325269        1.38872933220829       -0.26902250017451
H           -4.76192563990974       -2.34952949827113        0.08374415618708
H           -5.60880030925171       -0.90433408844473       -0.12327725066217
H           -2.16576777474762       -2.31184281049769        0.37532396025468
H            3.52724882283047        2.52636103168851        0.71687533276145
H            1.92173068771005        3.08044014820024        0.78172081356361
H            4.15300428352973        0.59502448959446        0.21798861288988
