30
 energy: -55.729728598491 gnorm: 0.000870811711 xtb: 6.6.1 (8d0f1dd)
N           -5.36932818028871        1.56798110029635       -0.55579980931633
C           -4.46276675875996        0.89990456114248       -0.33315095550264
C           -3.35461024783165        0.05560179283521       -0.07371595428615
C           -3.68830936315969       -1.26826854651278        0.14686845084351
C           -2.83686940785060       -2.32613328777462        0.42820490568092
C           -1.46199945754591       -2.33931920681619        0.35598126171362
C           -0.52371138803850       -1.33554205267561        0.06492680303581
C            0.82468258282463       -1.80772760028331       -0.12089986497687
N            1.06632124795183       -3.15325428076623       -0.27777537846703
C            1.91553681531373       -0.93870447256460       -0.08543322413568
C            3.22100657204584       -1.44525099532405       -0.24839491387137
N            4.26136107762414       -1.90533381602768       -0.40380572889075
C            1.68570387808418        0.43405570121641        0.07063172628287
C            2.51350025716526        1.56593877393444        0.13187595146276
C            3.90782562830186        1.62484526556500        0.14175318261133
N            5.05391221310835        1.70046005480256        0.15531872671666
C            1.62946689296118        2.66380990044910        0.18650981372323
N            0.35855291358502        2.29475240631075        0.16170613762406
C            0.33463873538972        0.92976681292459        0.09839122860591
C           -0.78213122157543        0.08675344870743        0.06595761191592
C           -2.08599962570469        0.71217483860076        0.01553118421731
N           -2.10675582159549        2.03575975384630        0.01149952397864
H           -4.74840393729693       -1.49166104053159        0.12033874975834
H           -3.31245614387267       -3.26333919630045        0.68304195701393
H           -1.02132060635484       -3.30358887453467        0.57495183909698
H            2.02999310320714       -3.39610221057502       -0.45564221124819
H            0.39768668678813       -3.70801438422863       -0.78499975389776
H            1.89964786548864        3.70259279465163        0.24326094265337
H           -2.98436930492713        2.52782328159879       -0.05867112633565
H           -1.17546912143860        2.52572246103355        0.07398494689221
