27
 energy: -47.758179140815 gnorm: 0.000375756426 xtb: 6.6.1 (8d0f1dd)
N           -4.06406547277591       -1.89266517493249       -0.18584168974161
C           -3.27941372737656       -1.06224798885246       -0.07719494689577
C           -2.32347534237230       -0.02885924470143        0.04037427481050
C           -2.73372783634314        1.14614546406695        0.68884762374544
N           -2.24106728974338        2.33753472388612        0.50019053579646
C           -1.09954109877224        2.69370007152130       -0.02480485734647
C            0.09687674482838        1.95829148016683       -0.11039710091889
C            1.30454528618129        2.69487287136616       -0.17341354022273
C            2.53092473816032        2.09213565551168       -0.11585971032079
C            2.60313877488959        0.70375345219348        0.01770210679553
C            3.68480404212733       -0.16141730580525        0.17494007408063
C            3.19526483809398       -1.46036389400636        0.28577296648775
C            1.80165401345366       -1.45112373287397        0.15680373233133
C            0.99360673751290       -2.57349632145048        0.31278628885786
N            0.32111040833481       -3.50240887726023        0.42824527638489
C            1.38677017633666       -0.08998377641878       -0.02103389350238
C            0.14123861630820        0.51729257699038       -0.14430544415763
C           -1.03350358752626       -0.26723531599355       -0.47918239767812
N           -0.86357251454607       -1.31742243145041       -1.28927205444060
H           -3.63424971395098        1.11282345243864        1.29213137651526
H           -1.04816169289880        3.75248932178640       -0.26144971621029
H            1.23092650296021        3.77059513808457       -0.22855759803227
H            3.43732072874799        2.67839153650095       -0.14804122444450
H            4.71748494522396        0.12745375933357        0.22968591217863
H            3.78278058296515       -2.34549560328815        0.45171954117508
H            0.06162215624326       -1.58872962276264       -1.58089982980321
H           -1.60953581306206       -1.98524265105065       -1.41474921214453
