32
 energy: -58.372400410962 gnorm: 0.000639098612 xtb: 6.6.1 (8d0f1dd)
N           -3.30117910610932       -2.03687149380484       -1.11317777079683
C           -2.63921533977968       -1.23434706300888       -0.61813256219786
C           -1.90558505204617       -0.12286785449687       -0.15747748531178
C           -2.66636059892737        1.08364916851390       -0.10968457945117
N           -4.00228301056824        0.97233027108832       -0.32221404394115
C           -2.18416156578988        2.34848398189936        0.19762380843785
C           -0.85444995644963        2.74444981730361        0.39303237810672
N           -0.64259078291288        4.06136986204755        0.69944343696521
N            0.26702620928255        2.07019174770951        0.22666489652971
C            0.45797394335857        0.75940286983015        0.06526351972944
C           -0.52756815699576       -0.32037009282687        0.08935576406828
C           -0.06193246864107       -1.64718493008904        0.24883944337924
C           -0.94435221372072       -2.67968007253378        0.61488017924074
N           -1.53139349160463       -3.58199577698112        1.02361112149802
C            1.30275519776833       -2.02993249010811        0.14708755006546
N            1.66609246114543       -3.32028720451211        0.27731376212571
C            2.22350526597927       -1.01039610025547       -0.10190097918281
C            3.61546355162904       -0.93868148719435       -0.28017217063380
N            4.05125349510290        0.31789163592803       -0.39369273023102
C            2.97041775300692        1.11355609577503       -0.28046043038354
N            3.01258352269276        2.44870882687441       -0.32265790455017
C            1.77669070442971        0.35044975422128       -0.10671364910238
H           -4.56962441150163        1.79798583883669       -0.37992543326095
H           -4.39974838240638        0.09025202257347       -0.59600429526652
H           -2.92521775030816        3.13527348559513        0.26770345830647
H           -1.40755555262774        4.61519778963313        1.04091754147459
H            0.28184655346990        4.31317574055892        1.00451435640991
H            2.63400952265936       -3.57685190802590        0.21605608323373
H            0.97516078378848       -4.02118586859282        0.48620269618156
H            4.31955947981924       -1.75029825796707       -0.33266459482428
H            2.12265430321482        2.91794425696208       -0.23453687519031
H            3.88171962574042        2.92640232214656       -0.47592116682979
