29
 energy: -50.404154914263 gnorm: 0.000825580504 xtb: 6.6.1 (8d0f1dd)
N            3.72390759912300       -2.52750140653470        0.37534843696701
C            2.93432269035400       -1.69767922088739        0.25881081052871
C            1.98403155661189       -0.67527290988318        0.10818670625228
C            2.45593071332454        0.55402804265726       -0.45312996575762
N            3.58053045887281        0.52808273900426       -1.19714546823860
N            1.95940215384505        1.73791038480104       -0.19565560253937
C            0.77279326985416        2.05767841344862        0.29373089194867
N            0.72402568409965        3.27223510768358        0.87549448729121
C           -0.43408348074620        1.31161660521153        0.12585954284066
C           -1.65134444797589        2.02277076221287       -0.03405924317058
N           -2.83222152750370        1.48670847329844       -0.17751263073488
C           -2.90926544378540        0.16079995751553       -0.21058290527427
C           -4.02262381472058       -0.65395491129635       -0.36806158849708
C           -3.57421761536192       -1.97566455529179       -0.40040844196125
C           -2.19502074362552       -2.02696004659677       -0.21903745871447
C           -1.72399681869181       -0.71198490872252       -0.08449976644242
C           -0.47941768672372       -0.11542703893568        0.13379045690954
C            0.66297202855117       -0.93869419865405        0.48427256518020
N            0.40084629243028       -2.07696877854089        1.14474444185657
H            3.98881101851841        1.40179880195866       -1.47908266370807
H            4.10836882050417       -0.32183443576806       -1.29205273228078
H           -0.14960692376375        3.66134246643548        1.18030132468270
H            1.54754373540263        3.84781471622517        0.85200227255318
H           -1.63126257369881        3.10482956775250       -0.09398878121182
H           -5.03568044722620       -0.31916399195876       -0.47943967146678
H           -4.20354915543832       -2.83799880534379       -0.54112613691103
H           -1.61018522555653       -2.92958464539314       -0.27714391017519
H           -0.55540004089995       -2.30311569893679        1.36630134803200
H            1.13337709742816       -2.73975074406014        1.33771599964190
