28
 energy: -46.666895929647 gnorm: 0.000850670938 xtb: 6.6.1 (8d0f1dd)
N           -2.57787214658893        2.95276675266986        0.04715281135156
C           -2.26534490308767        1.84242420153806        0.03619834809620
C           -1.97984148205210        0.48409286787074        0.00322132442276
C           -2.96925087683573       -0.51363095015748       -0.13848396169551
N           -4.30924630946713       -0.28453142145034       -0.15044052841488
C           -2.34713248909782       -1.77784208615981       -0.19069891095996
C           -0.97566491201658       -1.59110273941372       -0.09903068314053
C            0.08872043684079       -2.48610479692952       -0.00345932117516
C            1.38637416181631       -2.03415150701207        0.12890791255302
N            2.41673265051917       -2.96736573364416        0.20488714231744
C            1.69268502912943       -0.63353428122823        0.06426377000663
C            3.02365149320962       -0.26043669889723       -0.07982450432789
C            3.59548625266415        0.99428261002900       -0.30537915436342
C            2.94506160763416        2.21090570952815       -0.29270802677610
N            1.75832093986159        2.48461227768256        0.22519461108354
C            0.77962745568447        1.68448082849475        0.48805695300148
C            0.57595445163502        0.31446048092266        0.14063806522556
C           -0.71249864574754       -0.16845000892480        0.02933107805747
H           -4.91558295636186       -1.01255868376193       -0.48564077492315
H           -4.61844576048967        0.66504089924544       -0.27692090815196
H           -2.86124229342216       -2.71709445711267       -0.27637250163903
H           -0.10462714554968       -3.55049186580091       -0.01783721853059
H            3.17177674180625       -2.74713732681638        0.83557336993235
H            2.08943193027603       -3.91562844594674        0.31373607059893
H            3.72691096912880       -1.07956932629274       -0.15756729819600
H            4.64920267095164        1.00297321135905       -0.55198691570110
H            3.47410989176975        3.09008236477909       -0.64389295087433
H           -0.05089706231243        2.16376760673159        0.99964053732332
