29
 energy: -45.596376205603 gnorm: 0.000635594343 xtb: 6.6.1 (8d0f1dd)
N            3.44036619841882       -2.17335903332783        0.28778016624746
C            2.83018546712539       -0.94894399451325        0.13401850199630
C            3.67662177531234        0.13731168221942       -0.13959210923438
C            3.31266914557486        1.46421130053240       -0.26907820148689
C            2.07275189707396        2.05826433090407       -0.16507641599103
C            0.78136564194041        1.50643379999044       -0.01519921242865
C           -0.28052710227858        2.42420078877170        0.08518777781481
C           -1.60927458110094        2.05453948284518        0.15820754217180
C           -1.92075024530197        0.71439473809574        0.07200171061816
C           -3.12633087904549       -0.03171600817890        0.03913091280924
N           -4.39778097128714        0.45865913785331        0.06737029212260
N           -2.88884306701086       -1.33964447084070       -0.12664869363895
C           -1.55203548183810       -1.49664262817803       -0.18330849298946
N           -1.03320096325670       -2.75640215227751       -0.36690565719022
C           -0.86373402663827       -0.26626454937229       -0.03830168366420
C            0.49302519965777        0.08800653181086        0.01722185088745
C            1.44242930650300       -0.93798087831962        0.18769148576439
H            2.90288787791564       -2.91430959499541        0.70575793996958
H            4.42648324386143       -2.18382320381783        0.48441161358191
H            4.73191833721764       -0.09210777302464       -0.21842714255568
H            4.13555462150591        2.14801820001463       -0.44608279490384
H            2.08017147869272        3.13965009840143       -0.24232792543310
H           -0.03226482696338        3.47611282618987        0.10982801255080
H           -2.37879897855554        2.80892089630971        0.25232599864201
H           -4.53316115211259        1.35904286611253        0.49517557018750
H           -5.11924875766098       -0.22571144833019        0.22417020127863
H           -1.75129877097095       -3.42163554104529       -0.61942949929654
H           -0.21355364321851       -2.79961275443717       -0.95640167775793
H            1.00446346894010       -1.89867089969266        0.42721347292824
