28
 energy: -51.489921540110 gnorm: 0.000812147866 xtb: 6.6.1 (8d0f1dd)
N            3.18074447862719       -3.21149101326984       -0.17820082842237
C            2.69631595058135       -2.17108835972861       -0.18315080690645
C            2.11198265908000       -0.88606256129093       -0.17074309333301
C            2.83154779077164        0.14780828104665       -0.77277474834239
N            2.72662537401666        1.41567732584750       -0.49140207541297
C            1.75470028779281        2.06073667762616        0.11393974634180
N            2.10329976386087        3.20811145853096        0.71300887497182
C            0.35675055746892        1.70251369816341        0.03137277554235
C           -0.57964653863045        2.73792190261700       -0.11459818900751
C           -1.93333737696612        2.50017356603544       -0.19956742663008
C           -2.38156717892685        1.19096587672659       -0.13748997059146
N           -3.64626985594679        0.74619622652237       -0.26289609415503
C           -3.58032810457928       -0.57326738102508       -0.21325310893279
C           -2.26886846173664       -1.06096290372242       -0.02300493290311
C           -1.93548397456622       -2.40927065109362       -0.01163365518481
N           -1.66724154222047       -3.53077818888954        0.00956426144789
C           -1.44540385147345        0.09481983438153        0.04314711392437
C           -0.06545999546584        0.34468122351337        0.14804431398805
C            0.84027737779000       -0.74507338950011        0.43943495536722
N            0.41942157430137       -1.72093068509368        1.24630505402681
H            3.66335816387271       -0.10730879572832       -1.41956772186105
H            3.06717677987346        3.49609822105175        0.68489575263889
H            1.41348521650089        3.80713548888130        1.12997834474929
H           -0.21832165134718        3.75088024845957       -0.21771206645384
H           -2.63757017087312        3.30569467154471       -0.33190137682503
H           -4.46523109121536       -1.17620081304222       -0.31374052705635
H            0.93074614221779       -2.58972770682856        1.30098856101122
H           -0.53046536610823       -1.72582097063484        1.58364776350869
