24
 energy: -43.794069953033 gnorm: 0.000604986505 xtb: 6.6.1 (8d0f1dd)
N            4.15906470810811        2.01604952437373        0.10331857109125
C            3.13872576050762        1.49529124325694        0.06595479466545
C            1.86005790568278        0.89549352078600        0.02877842822254
C            0.72817555909977        1.67532092918681        0.16839730999887
C           -0.57589401412516        1.14060500418910        0.10649977876933
C           -1.65987434300508        2.03768103986952        0.24021568963343
N           -2.88162899747243        1.91157549621013       -0.20362989833498
C           -3.43678533133075        0.79798434981137       -0.62716794169793
N           -3.18848432172130       -0.41708292431943       -0.21753895398555
C           -2.05445605739887       -0.86833412251880        0.27740133142862
N           -2.10934919229029       -1.99851140141257        0.98405402307955
C           -0.74768579830679       -0.28925545744926        0.00883964600373
C            0.37655113286809       -1.08430628036463       -0.13596015169834
C            0.62039655955594       -2.47032042805526       -0.28699332826805
C            1.99122882615766       -2.59774617062697       -0.38800548126504
N            2.64995178701839       -1.42251265905091       -0.27295066181275
C            1.71771433016105       -0.49236872585784       -0.14902823139096
H            0.83592531356780        2.74316504875837        0.29158305371415
H           -1.43910055210485        3.02281927174973        0.64145929627246
H           -4.30247845566170        0.91458630627938       -1.27032005764607
H           -3.00270552635862       -2.42715336388551        1.15988812059117
H           -1.26158610625083       -2.43662772436010        1.30477056838116
H           -0.09903850805042       -3.26092866239234       -0.38949770496657
H            2.55202482915030       -3.50453761067668       -0.52665684588586
