31
 energy: -53.858628879891 gnorm: 0.000764860457 xtb: 6.6.1 (8d0f1dd)
N            5.73469709621715        0.03043074708245       -0.09691446292045
C            4.59410188813399        0.20116303664308       -0.08106440473093
C            3.20629499447308        0.37739624947548       -0.05266486104779
C            2.73048488165931        1.69801315415057       -0.07901392643434
C            1.44589733442786        2.16066857190834       -0.03987676302327
C            0.21956209525864        1.44189981803148        0.00389549256688
C           -0.95313014189495        2.19538304127327        0.04705120436137
C           -2.25035288685174        1.66934762077501        0.05516204955698
N           -3.34339437019411        2.50085873933230        0.08469212453194
C           -2.36288044006750        0.28510394905400       -0.02378703974868
C           -3.42412536703276       -0.65652008457621       -0.10262870597045
N           -4.76154693190477       -0.39408352819773       -0.13836321724597
N           -2.97944511479766       -1.92585228638287       -0.10893898002497
C           -1.64053246486178       -1.86156995910651       -0.05157937126689
N           -0.82085299899636       -2.91244417831546       -0.03631128258512
C           -1.17228147947398       -0.50887673960616       -0.01382179253194
C            0.12229063487459       -0.00775268156037        0.00784298411785
N            1.10037511943277       -0.93776308871983        0.04420609260796
C            2.40554969746997       -0.80300883228788        0.03061702343996
N            3.07766909147099       -1.98502338832310        0.07248928857666
H            3.50945435271430        2.45137886771462       -0.12742903864215
H            1.33443221469905        3.23828142377511       -0.05856493634581
H           -0.85518049793371        3.27321392926225        0.08034320559993
H           -4.18536268515351        2.11640477193204        0.48100810357627
H           -3.15970547086077        3.45893744997907        0.33905793398514
H           -5.04651589482219        0.44851910134991       -0.61224522417456
H           -5.32495843723505       -1.20740812021413       -0.33719408547930
H            0.16302164816675       -2.65966375085246       -0.05679416829834
H           -1.17310251333835       -3.84725584635392       -0.13334855710252
H            2.56273193805178       -2.82984805195423        0.24475664340177
H            4.07876592866878       -1.99150717438799        0.16320037775063
