23
 energy: -40.049798716214 gnorm: 0.000641560258 xtb: 6.6.1 (8d0f1dd)
N            4.16082072899768       -2.20494312903335        0.00077553313072
C            3.35881353924691       -1.38610854449670       -0.00190080823722
C            2.37103248022240       -0.36777449764349       -0.00013051092697
C            2.86345341730652        0.95443671821812       -0.00031212447305
N            2.21983607292035        2.09488062936726       -0.00000776153074
C            0.91750523771538        2.28501546745191        0.00039762534398
C           -0.19120638534056        1.42205736246088        0.00057393832615
C           -1.46299486685000        2.03404353771550        0.00089881412806
N           -2.62312152922691        1.41526182294552        0.00112746428353
C           -2.61042997913913        0.09650525004321        0.00106702159126
C           -3.68546010808862       -0.80165690535061        0.00126882141529
C           -3.15677453126383       -2.09049121079533        0.00108498962029
C           -1.76085205760179       -2.04085374573336        0.00075934955587
C           -1.36857795198327       -0.69522364552255        0.00074578559552
C           -0.13613957907379       -0.04126782493649        0.00050044249612
C            1.05015131349915       -0.79396791207463        0.00019524047925
H            3.94411169323350        1.06607212724097       -0.00084597457113
H            0.66859160972627        3.34443467066379        0.00057275631111
H           -1.51912714924887        3.11521989606947        0.00095759654212
H           -4.72359849226348       -0.53269281451923        0.00152303155253
H           -3.73602943452802       -2.99646390647772        0.00117711360436
H           -1.11661361423222       -2.90122155854139        0.00055431041649
H            0.90854806317231       -1.86836240675177        0.00006749024646
