30
 energy: -50.121707592295 gnorm: 0.000574765862 xtb: 6.6.1 (8d0f1dd)
N           -5.08512192488192        0.73747132185630       -0.43402461876008
C           -3.99657304112930        0.39289795582338       -0.27767226624925
C           -2.67213358086347       -0.04736190247328       -0.09417501781591
C           -2.54424633730661       -1.43865194223985        0.16782442492717
N           -3.68576833052607       -2.12909823309491        0.42416863380560
C           -1.35464191927368       -2.16129294863257        0.11797640877956
C           -0.06805023071719       -1.69922741542173       -0.06659780404054
C            0.46642351922379       -0.41194711411349       -0.05690585938158
C           -0.27223108596928        0.82797403353160        0.07221778818627
C            0.42889400806036        1.99899624100800        0.38248153111292
C            1.81102537538865        2.07168594322522        0.48304504206821
C            2.55815185329160        0.95192230547686        0.19253640607239
N            3.89519807320844        0.81047639684463        0.15290628337146
C            4.10696897756875       -0.47601253818161       -0.14662815156979
N            5.37242318039577       -0.97622362683489       -0.22336666133679
C            2.90877541334922       -1.21752025202931       -0.29992876955985
C            1.88143382076527       -0.31056295804215       -0.09557603909835
C           -1.67766793152668        0.94607055077209       -0.19400385338827
N           -2.12017627595214        2.17439159465591       -0.55281903065568
H           -4.58090141795789       -1.67659980248327        0.35466962664665
H           -3.65691555458578       -3.13092561912675        0.48080546446577
H           -1.46657350775803       -3.23384196805502        0.22368193256863
H            0.67688897144936       -2.48030850014035       -0.14411865927977
H           -0.12530337004128        2.89780467070662        0.61575208446732
H            2.29196014913504        2.99640673481469        0.76165379470273
H            6.10248213459982       -0.28611302163584       -0.28842949181893
H            5.50800973891174       -1.82650383579201       -0.74342516302728
H            2.86106084788870       -2.26176669113974       -0.54473045795527
H           -1.46718148621209        2.90820924196174       -0.75620757156543
H           -3.09665020013541        2.32318983365950       -0.74362393677320
