29
 energy: -56.006252407267 gnorm: 0.000752092244 xtb: 6.6.1 (8d0f1dd)
N           -4.82623138613943       -1.02207871380758        0.25569957531217
C           -3.67994186760254       -1.08592415495713        0.21257252334151
C           -2.28872612563083       -1.21002408683168        0.15810748144429
C           -1.58656171863264       -2.43661306015871        0.20300334879628
C           -0.22431602427189       -2.19836750096017        0.09905141683043
C            0.76910705142945       -3.17216963788468        0.16118395062905
N            1.60103179348771       -3.96842320101819        0.18474755743530
C           -0.03109801828290       -0.77326862886153        0.00643289637861
C           -1.34643590156454       -0.17750770719959        0.05961860791089
C           -1.48338231185648        1.21808121204636       -0.02460092060823
C           -2.75786987968096        1.82137621966608       -0.00442022013982
N           -3.76092538381655        2.37924987726609        0.02003427563493
C           -0.35128692934213        2.03687850346370       -0.09174788323990
N           -0.51908923969888        3.39205336886757       -0.16983723376204
C            0.95992126257357        1.45728343106644       -0.07659513021913
C            2.08926720726491        2.30314345024849       -0.14186346337248
N            3.27058298008450        2.10910498329205        0.38288042507422
C            3.75314990224366        0.96109923654849        0.79879831280830
N            3.50342302579633       -0.20164351601808        0.26254415462752
C            2.41282554917949       -0.54562602276292       -0.38156199707491
N            2.50921386960002       -1.48957236942311       -1.31278606442930
C            1.09339275454126        0.01995797263385       -0.08055080755235
H           -2.04466859929591       -3.40370427623590        0.30365114627093
H           -1.45762273441807        3.73368212237999       -0.03171668544987
H            0.21855391897758        4.00822267330502        0.11938846392642
H            1.96535969765389        3.29767506558152       -0.55841081904727
H            4.55403224204450        1.00365156205624        1.52648800749042
H            3.39362451637656       -1.95833810568102       -1.43489779761935
H            1.68573176687948       -1.92208142762142       -1.69860466849839
