31
 energy: -59.439724293716 gnorm: 0.000713292346 xtb: 6.6.1 (8d0f1dd)
N            5.96229848130125        0.22754558092594        0.02864133929817
C            4.85434651221798       -0.07785218321262        0.03597712409967
C            3.48783302162397       -0.42067725500922        0.04683022826355
C            3.14826764556424       -1.69676583056745        0.49224655576785
N            2.04866737711453       -2.34112337481540        0.20426469043233
C            0.89208062362384       -1.89998032022367       -0.18111609211319
C            0.35348750907997       -0.60092918189901       -0.02246927157848
C            1.16914927414788        0.60620115597300       -0.00949693274116
C            0.48178148370797        1.84021652380172        0.16690047818789
N            1.16261446048169        3.05136443948517        0.30023866554862
N           -0.83207363481786        1.97132728140885        0.21613731062796
C           -1.58939596091309        0.90033366207070        0.08849914147598
C           -2.99273935952581        0.80545785970087        0.05642689396427
C           -3.92140475570805        1.84347872805156        0.09073254380596
N           -4.72744425343050        2.66366961174602        0.11632782260999
C           -3.32280020649533       -0.56895957192487       -0.01276367383083
N           -4.56599601204513       -1.07526286790878       -0.05958901233718
C           -2.12220906010409       -1.33722432934150       -0.03773221266162
C           -2.11675875701283       -2.72721179746318       -0.08341553192556
N           -2.17293108950526       -3.87756436462156       -0.12482501692519
C           -1.03412489695153       -0.44229534438038        0.00192985459691
C            2.56382178456901        0.60679439600361       -0.32415149005401
N            3.09044333393634        1.69003275937751       -0.91110056971662
H            3.90294961275878       -2.28642206353698        1.00057768109333
H            0.22531862462762       -2.66836582639981       -0.55837160397478
H            1.94663493309378        3.04297512465093        0.93890071340770
H            0.50174641028796        3.78635547877105        0.52133943542467
H           -5.35975339686986       -0.45990941766196       -0.03069098226931
H           -4.70664282983977       -2.06993282334702       -0.08623388442680
H            2.50472925511545        2.49006852352365       -1.10376802518525
H            4.08033667836693        1.73367959902066       -1.09441979136638
