32
 energy: -58.404360655662 gnorm: 0.000737056245 xtb: 6.6.1 (8d0f1dd)
N           -3.94004344905414        3.03768111979235       -0.16210430801777
C           -3.32173644612113        2.06849998254432       -0.09605133425570
C           -2.59154202834284        0.86989954905374       -0.02531184192729
C           -3.30916297066012       -0.30687022005920       -0.36083893533126
N           -4.49520341394429       -0.18350978516394       -0.99116226379073
N           -2.99340824004752       -1.53694607067036       -0.00584062264972
C           -1.83008059027033       -2.02993390131648        0.34327528365178
N           -1.89949544574637       -3.24104202854788        0.92922116057277
C           -0.52081279937199       -1.48344040320216        0.07933073412291
C            0.51734812009155       -2.39900706194980       -0.17284974316248
C            1.83148235786899       -2.01986706095505       -0.32221148703407
C            2.15252667299723       -0.68159385197439       -0.14807886209403
C            3.35460262945233        0.05624665218726       -0.15862076190602
C            4.64905302201266       -0.38663304008910       -0.38797502772427
N            5.73423505279201       -0.72120627819324       -0.58342804970738
C            2.97072652693977        1.39498613213933        0.10400625310035
N            3.80930073475186        2.45061235437133        0.25694089060058
N            1.64616510394454        1.51992814154192        0.26870791364072
C            1.11279616725673        0.28008724066582        0.12029628024503
C           -0.24201703798910       -0.08632634941631        0.17029367801430
C           -1.22364692734678        0.96860858758747        0.31639912761307
N           -0.75903903522581        2.15773135718129        0.69393772092167
H           -4.88944265181821        0.72362056632766       -1.16973452307501
H           -5.05256394753005       -1.00770380112458       -1.12803394063908
H           -1.07835879513582       -3.69300478681238        1.28666366624887
H           -2.80729807831199       -3.63502919927942        1.10491299471708
H            0.26243749677268       -3.44066772226400       -0.30704674919606
H            2.59758262382132       -2.74681622577698       -0.54745331530397
H            4.75462890399002        2.34579875202714       -0.06897153742147
H            3.40695445332492        3.37124457922343        0.22987872587725
H           -1.37651143492604        2.95460918751438        0.68757157677518
H            0.27893406022585        2.26177421443719        0.67953790763458
