29
 energy: -50.413451727441 gnorm: 0.000757387928 xtb: 6.6.1 (8d0f1dd)
N           -4.75873858513968        1.36771889873213        0.50364884191683
C           -3.74167421763518        0.86009169070838        0.33180019526111
C           -2.49918697869102        0.22778338307764        0.11376029356556
C           -1.40432378062500        1.06743240054475        0.09719229289642
C           -0.03101722250372        0.84475572490764       -0.06446475504950
C            0.77774414199422        2.03235697671409       -0.16436554621298
N            0.16522239025383        3.27188088050083       -0.30904950866462
C            2.15481896999847        1.99725107925389       -0.06281208728398
C            2.78327169731088        0.77071129570721        0.07915173624127
N            4.08360763761891        0.44657576467232        0.17437570564774
C            4.07553332716840       -0.88473237524755        0.20537849838915
N            2.88567439723142       -1.47953150646968        0.13629768496931
C            2.00159404184754       -0.44440003970849        0.05832965394090
C            0.60957106590971       -0.44698695535498       -0.02904531995204
C           -0.05432880306180       -1.72991226975026       -0.08474972401983
N            0.75192021178978       -2.79040640574600       -0.07164490480902
C           -1.42843640579054       -2.00134914269593       -0.18924362948589
C           -2.53735646332472       -1.18518651205475       -0.09967936124888
N           -3.76345947224170       -1.75200102994714       -0.21198366920016
H           -1.66889549480968        2.10463355252920        0.26930356958322
H            0.82061243720145        4.02670275098388       -0.44490675352754
H           -0.62204268194521        3.32643006766746       -0.93503619942401
H            2.73517458581798        2.90638953669336       -0.11378361132109
H            4.98359815659986       -1.45573138985585        0.28124082596599
H            0.36760672598192       -3.71848755360353       -0.11755214938140
H            1.77840985402902       -2.61003439702164        0.01572962229741
H           -1.65878430726513       -3.05608059197160       -0.30923128819087
H           -4.59118075309926       -1.19900147727812       -0.07014253041031
H           -3.85633936431947       -2.74880284738717       -0.28566347119426
