31
 energy: -60.229795261868 gnorm: 0.000813113168 xtb: 6.6.1 (8d0f1dd)
N           -3.64476118898956       -3.81363002032331       -1.29577649885295
C           -3.05804779220340       -2.91109281135996       -0.90285657728225
C           -2.31817433081607       -1.80623435676156       -0.40969895738635
C           -3.02646269112179       -0.62595379952658       -0.21485059519137
C           -2.55535722034182        0.56190187456187        0.32601577005304
C           -3.55594073367427        1.52350782947622        0.61804072882198
N           -4.37001999278468        2.28833582533682        0.87731774234102
C           -1.21748171817887        0.95754944817982        0.58085734339233
N           -1.04222588576790        2.10122561463800        1.24922541812240
C           -0.02566625152896        0.25049330746525        0.17947080357313
C            0.06641838784406       -1.20436901399032        0.18693857984742
C           -0.97559792134106       -2.06605700458525       -0.10905990561408
C            1.36711850463271       -1.80783766556137        0.36876104990690
N            1.47033095455358       -3.13576438611779        0.65469057088151
C            2.52999595131666       -1.06356296264663        0.16367302765435
C            3.79050757641869       -1.67638551124970        0.31461777412620
N            4.78646019722373       -2.22473218250027        0.46856984034091
C            2.42700551575108        0.29109830049458       -0.18958936528896
N            3.39951380612840        1.13669581353030       -0.50319289771595
C            2.81819084852916        2.33068787522771       -0.68952771864985
C            1.44321349224987        2.31474518573886       -0.44698025115796
C            0.56979108074566        3.38462274501397       -0.62007048231968
N           -0.16874403070302        4.26005788406755       -0.73696710117248
C            1.12971010053407        0.95444000182111       -0.12095295303883
H           -4.08542335180924       -0.65619535077111       -0.44503789518224
H           -1.82592348437921        2.70762897696649        1.44084323007900
H           -0.11740479502007        2.47035238985989        1.40147378663326
H           -0.70183977509963       -3.10761528285201       -0.23249772384605
H            0.72774336821235       -3.61705004452274        1.12887502218814
H            2.39953249504805       -3.50778568225802        0.76992769809397
H            3.40373525447093        3.17764913824805       -0.99677645765752
