32
 energy: -53.572389850590 gnorm: 0.000554903443 xtb: 6.6.1 (8d0f1dd)
N           -5.30787263149106       -1.64581526280137        0.30056657035369
C           -4.32114476205416       -1.05748320228518        0.21493198002469
C           -3.10920479840689       -0.37870287132266        0.12054093311616
C           -2.92754145657100        1.01685687576902        0.05787812505276
C           -1.56127278204023        1.28259208780177       -0.00683545912480
C           -0.81730123057514        2.47191742451547       -0.08366251889829
N           -1.42717797920165        3.69138766024217       -0.07929355816888
C            0.56920450724966        2.36894993315252       -0.09324425424556
C            1.28347012815781        1.16448158405083       -0.03925814044185
C            2.67865194584575        1.25362243921456        0.03256576706250
C            3.65873577369028        0.26329982566265        0.09964705137557
N            4.96243690295105        0.69349163086369        0.15695018587688
C            3.46029180824942       -1.11644323709335        0.03416283507823
C            2.24560270661666       -1.79152817385670       -0.09708958019181
N            2.30613035851650       -3.16373404422598       -0.17195140311937
N            1.00206460169514       -1.34189385866853       -0.09012157392523
C            0.53102476881322       -0.09396554386871       -0.03319837660611
C           -0.85824277118310        0.02842384059637        0.00611039647526
C           -1.83865769241213       -0.99982664090906        0.08285102560806
N           -1.55585450636622       -2.31686917714138        0.08136720395825
H           -3.73049632539599        1.73255824091505        0.06909745038540
H           -2.41350530694674        3.72680322185725       -0.26633019131718
H           -0.88579715442887        4.50036967964600       -0.33113798366142
H            1.13922339793040        3.28897146462115       -0.12868026479260
H            3.06574320357720        2.26727921292166        0.05926651097515
H            5.66775045805356        0.03043149548845        0.42809264722640
H            5.13357239066421        1.65042250347204        0.41316348631344
H            4.34910657725361       -1.73466530412500        0.06429694183183
H            3.17352026259940       -3.59079548712054       -0.44669766113223
H            1.46510987140106       -3.62726934869652       -0.47244046280500
H           -2.26400773272704       -2.98340138987406        0.33677633804541
H           -0.56673309176506       -2.51727384130181        0.17469844687050
