29
 energy: -51.197825152933 gnorm: 0.000935122193 xtb: 6.6.1 (8d0f1dd)
N            5.93166292975835        0.15343852097100        0.35720538589003
C            4.82077142524034       -0.11056197001040        0.22021997328989
C            3.45504959583251       -0.36764490221783        0.07717684899537
C            2.84138366397437       -1.60836616184975       -0.08393182775870
C            1.45521968016631       -1.39571079137808       -0.13407415344376
C            0.37260654540830       -2.24676524223052       -0.25284944719167
N           -0.86903971364410       -1.81048691653209       -0.20991425878359
C           -1.14923990653462       -0.50242506949726       -0.11706045885909
C           -2.53902810582951       -0.28325069763451        0.01753074528744
C           -3.28017015270809       -1.48796023038748        0.10226768415233
N           -3.97099696459108       -2.40294473647034        0.18036620962214
C           -3.30620612590895        0.90292617327204        0.10129787829619
N           -4.62905276598155        0.77161425463669        0.36448009318470
C           -2.82220090430063        2.20233681252976       -0.09712672862898
C           -1.52482471045698        2.60909924875195       -0.34449064769257
C           -0.34682365376550        1.88971871994906       -0.34517531506884
C           -0.11234487208535        0.51896111963989       -0.13750175457286
C            1.20111041126822        0.02967576496867       -0.03865939900295
C            2.45987889535867        0.65457818539724        0.12132315967410
N            2.75059878032013        1.97523263366213        0.29706002559825
H            3.34235197445861       -2.55599692044380       -0.14369942628651
H            0.48940478785271       -3.31773086530214       -0.35893957331753
H           -5.23198425513584        1.57376029956431        0.33114544842851
H           -5.04224265317095       -0.14384560441577        0.42376004635553
H           -3.57388606588201        2.98166698253922       -0.07589941638749
H           -1.41192826253932        3.66937744793408       -0.53931545501094
H            0.53838481433239        2.46695376513606       -0.57369227433191
H            2.05591760581937        2.55895041643078        0.73540375674467
H            3.70700133744314        2.17796114148732        0.54989817851821
