22
 energy: -40.334871503841 gnorm: 0.000788446125 xtb: 6.6.1 (8d0f1dd)
N            3.75901586312659        2.33068437449639       -0.24728120379929
C            2.81370465760355        1.68717703933680       -0.17429299843377
C            1.62028992109890        0.93518726521574       -0.08407617620853
C            0.39690231725635        1.59491174495187        0.04425757224213
C           -0.82495343753675        0.92229538434398        0.07840935380685
C           -2.00455521593759        1.68608338498430        0.29702381921879
N           -3.22900564996353        1.40254654359992       -0.03240598643378
C           -3.68169336319429        0.22652165339879       -0.41852721519435
N           -3.25545532104983       -0.94533333756208       -0.02066303511883
C           -2.03996609419626       -1.25984698027908        0.33275827452888
C           -0.84882611946929       -0.53622412868964        0.08390102264235
C            0.37866997983732       -1.19880793708077        0.02552267500343
C            0.76942476515369       -2.54318774332131        0.01317571329097
C            2.16064107299568       -2.52782170637488       -0.10686582074917
N            2.67788847786034       -1.29467239961559       -0.15760867081471
C            1.63853522785466       -0.45869945044296       -0.09412905099969
H            0.39355591414748        2.67429935198900        0.09663593893868
H           -1.87307805943820        2.69018342573541        0.68991077576224
H           -4.60067229729590        0.23499060644370       -0.99328666060424
H           -1.93800687458981       -2.25256395582778        0.75883456982377
H            0.14445697737448       -3.41338348334929        0.05685862328077
H            2.81455843246155       -3.38017998265165       -0.15237555068242
