28
 energy: -50.690805088395 gnorm: 0.000580365290 xtb: 6.6.1 (8d0f1dd)
N           -1.78102866489205       -3.63357510299414        0.38206678061734
C           -1.13110482292681       -2.68954577613209        0.28935925842921
C           -0.26287314894711       -1.58920360604789        0.18428043808789
C            1.12881329100042       -1.83567878053478        0.14809548904109
N            1.60518188817905       -3.08823197096760        0.27228733974567
C            1.96688144479004       -0.73234064832110       -0.05571511941071
C            3.35030659757951       -0.57606675969651       -0.19252970068732
N            3.69773702641031        0.70348142114019       -0.36057258641492
C            2.56936589755573        1.42918992077320       -0.31437587574219
N            2.61841772077550        2.77744739361796       -0.45909986700662
C            1.42319456593447        0.60153833348535       -0.10711253458471
C            0.06750054896395        0.86777326107860        0.06984367648226
C           -0.39777282201563        2.13994022225188        0.44788162809549
C           -1.70054075946414        2.53050556100446        0.72045541982068
N           -2.84885439923278        1.96866849446587        0.41675037342373
C           -2.95316889990195        0.76932650631568       -0.16952684444115
N           -4.13212444618787        0.53897078769984       -0.78333341809445
N           -2.12881379697132       -0.25998806019236       -0.13931485998763
C           -0.82279283581630       -0.29994691602237        0.05736154358126
H            2.58931915828251       -3.26385249105386        0.18770159636849
H            0.96761592964897       -3.86003643491777        0.37078980053748
H            4.11137329654563       -1.33595585656827       -0.18481043562921
H            3.51088708071353        3.13165191403631       -0.76630455147338
H            1.80029093203115        3.25026260875851       -0.80666078918839
H            0.36955953419717        2.86012088900590        0.70069364402213
H           -1.82425671029405        3.49043179718758        1.21509031470743
H           -4.34544986667867       -0.40267418357660       -1.06262886963242
H           -4.87167469548188        1.20772485680437       -0.66048939956551
