23
 energy: -39.274088887727 gnorm: 0.000420038834 xtb: 6.6.1 (8d0f1dd)
N           -2.66771532353846       -1.88018216894326        0.68257212481960
C           -2.12000844826573       -0.78214939558155        0.13644850688792
N           -2.98178271628851        0.13490241292694       -0.26664843554011
C           -2.73350367788502        1.38911149985107       -0.53312567901225
N           -1.77558646927089        2.15074832482032       -0.04751415938356
C           -0.59763908332830        1.73804598362388        0.33246587098912
C            0.02113021160423        0.49231028270070        0.07936948449593
C           -0.69475343158659       -0.74942038595494       -0.09083001665095
C            0.00645397373994       -1.93669815831823       -0.30857115754130
C            1.39086954245130       -1.98175776953548       -0.39687577277585
C            2.12146575288564       -0.83207690086270       -0.16714892080637
C            3.48364796117355       -0.49257598053874       -0.11361383239671
C            3.51372355836574        0.86450498282275        0.16488951709328
N            2.29051727400540        1.41853217957790        0.28784390227341
C            1.42213315371184        0.42158075734640        0.10135668001411
H           -2.09786572559976       -2.64373324218249        0.99924993667282
H           -3.66521185956205       -1.90937710089070        0.80769335267292
H           -3.49934860442698        1.90557157470664       -1.10281277274519
H            0.03694212361541        2.49604229660794        0.77965621924713
H           -0.55176899584094       -2.85092507438118       -0.45780942322252
H            1.88473465422720       -2.91819296943865       -0.61759504179738
H            4.32377809968149       -1.14388584790780       -0.25686225640325
H            4.38536701263150        1.48389251675130        0.28644656520914
