27
 energy: -51.771624512808 gnorm: 0.000659408290 xtb: 6.6.1 (8d0f1dd)
N            5.61601894815542       -1.26654891671026       -0.59268205551051
C            4.52738470879697       -0.91641423055962       -0.48640661591089
C            3.20324598499586       -0.47926506330499       -0.35162355905235
C            2.81376127025498        0.84743636088937       -0.08012443837127
C            1.41923465029736        0.88544657782925       -0.03852607833101
C            0.52594517778565        1.93320890434420        0.26481506804108
N            0.96191341570349        3.16108017484774        0.57938748131508
C           -0.86800528909633        1.67894472726714        0.17721032145845
C           -1.76009444723604        2.74974575294950        0.36467213305994
N           -2.43792337320816        3.65757859342331        0.55569895357335
C           -1.35219566962169        0.41901967687009       -0.20251926232943
N           -2.54814658220959        0.29375948687700       -0.73732291044555
C           -3.20515750741607       -0.79619478544478       -1.04881461566284
N           -3.15979095171579       -1.98731482291803       -0.50285030450331
C           -2.11484567197409       -2.36572485170266        0.24275445319914
N           -2.31743803556388       -3.40444300767876        1.06631847714074
N           -0.85722472389510       -1.94310486679880        0.13841950612181
C           -0.42162496329709       -0.74770702709749       -0.16316199744370
C            0.94354708336771       -0.45624515550208       -0.26785334649750
C            2.06112764511668       -1.28181859604510       -0.45177223612747
H            3.49597289413368        1.66409052817089        0.07377084141520
H            1.94469065224790        3.36810836356844        0.56361217041552
H            0.30250734854522        3.90401175254359        0.74558619511785
H           -3.99357851740138       -0.65212757367747       -1.78095317469498
H           -3.21536222759390       -3.85518497401469        1.06369006284232
H           -1.53212037310194       -3.83266529626118        1.52333357425056
H            2.04224801833030       -2.33512192966516       -0.65566338067005
