33
 energy: -58.076864907424 gnorm: 0.000719335164 xtb: 6.6.1 (8d0f1dd)
N            4.54321566004781        2.87586963992155       -0.49567438434570
C            3.84615248125282        1.99189959586449       -0.25990577501341
C            2.99225609231879        0.90512060029420        0.01308248361508
C            3.59319337713888       -0.19217919179363        0.65511474196672
C            3.08885700948290       -1.43971131329790        0.84633947373086
C            1.87009615048096       -2.01466236705360        0.39141866973856
N            1.83442569863284       -3.36285521388803        0.51719094132611
C            0.73222929233377       -1.32717151310693       -0.08573119889110
C           -0.44928119855628       -2.06156308254870       -0.45927288100953
N           -0.38425793859530       -3.41171964677332       -0.83347833952238
N           -1.66833939778934       -1.58379538593563       -0.44266100963553
C           -1.84553129919603       -0.32054603636728       -0.06853541615099
C           -3.03234366729053        0.38865859941422        0.10339491852521
C           -4.33740233726476       -0.08611191612852        0.05064200642542
N           -5.43677925643751       -0.42928010197760        0.02859387654241
C           -2.67106004167836        1.74505982372160        0.39910343653988
N           -3.57933704670624        2.73998092663573        0.60659795093377
C           -1.29067675631501        1.87577961652692        0.35159098025417
C           -0.72918918634184        0.60756559394647        0.08183764339614
C            0.57109671677140        0.12101311952672       -0.04701080812142
C            1.63541440897671        1.06154237193954       -0.30095272085232
N            1.27164878069715        2.21487636508267       -0.89477974156977
H            4.60619508601454       -0.01933572490924        0.99895307853121
H            3.74610125040444       -2.13961094075036        1.34876860096211
H            2.55975698010548       -3.81039502354495        1.05080765492334
H            0.94825052863851       -3.83813810697931        0.39638515513795
H           -1.31435678479701       -3.72672137089611       -1.08574303585628
H            0.28880375037707       -3.60662241899330       -1.56427545904628
H           -4.52583798407219        2.46002756763153        0.80602006640167
H           -3.25947175711356        3.58442191338978        1.05012089108334
H           -0.76095238280574        2.77863197822164        0.59851849980764
H            0.31684400232783        2.34522279403015       -1.18560701229257
H            1.96867649125632        2.90296248459972       -1.12667335403462
