30
 energy: -50.923265445929 gnorm: 0.000685825190 xtb: 6.6.1 (8d0f1dd)
N            5.77096409794774       -0.50087388253761       -0.11208424478493
C            4.63238358100330       -0.35898222915938       -0.05822974382162
C            3.23282150956041       -0.19663920975911        0.00059150000024
C            2.73185666526910        1.08442297471113       -0.26993445219538
C            1.43626289330279        1.52893809117207       -0.21760685286665
C            0.20938705407518        0.85145482996085       -0.01640754796341
C           -0.94537645713915        1.65307897477592        0.03912371360850
C           -0.84674685342771        3.05495334674087        0.01802665703165
N           -0.85454413507273        4.20607442285718        0.00301791067375
C           -2.26554310818667        1.12498482294470        0.11684383636323
N           -3.32204193155075        1.95549718188949        0.23672126355697
C           -2.40471940544859       -0.25555019609013        0.04097569762371
C           -3.54007672206356       -1.08253310929763        0.01517659162531
C           -3.12085311488222       -2.39703586173522       -0.10654893024330
C           -1.72081846431097       -2.43877668776176       -0.14346114275573
N           -0.98512042086365       -3.58857798814291       -0.29094776704407
C           -1.23366033829582       -1.10308330985336       -0.01714021461410
C            0.06288248642007       -0.59114769434332        0.08355650843518
C            1.12272385056472       -1.48260854447112        0.38035345497918
C            2.48459348348166       -1.32418434982366        0.36449311539220
H            3.48077976291026        1.83128022682295       -0.50708358201926
H            1.31913848885282        2.59289943143395       -0.39234073176930
H           -3.18899813709895        2.95205463163415        0.21579568167842
H           -4.25367634066379        1.58406080191425        0.22163802583777
H           -4.56445143865968       -0.75979427301274        0.06149476025791
H           -3.76025747786134       -3.25821686714312       -0.17896444936297
H           -1.52577467796588       -4.39713801009157       -0.56101170971596
H           -0.10494965904774       -3.50407135508512       -0.77741643538642
H            0.78643890960698       -2.45551224320313        0.71235052183444
H            3.06905288154385       -2.19460900244663        0.64187837754475
