30
 energy: -50.115517610097 gnorm: 0.000668695084 xtb: 6.6.1 (8d0f1dd)
N            3.14384440245225       -2.77442350572219        0.11785566307394
C            2.69505032594757       -1.71110820866369        0.07189033034031
C            2.23844164546279       -0.40194553313930        0.03692499823358
C            3.12460827845663        0.71338418297139        0.10488355288823
N            4.48168939033875        0.60630111239201        0.13315245992793
C            2.38557467876931        1.89741241927446        0.07013899035566
C            1.04021208381418        1.55091058046603       -0.01771675173060
N           -0.01610769548136        2.34128835341979       -0.17028510154933
C           -1.21241856406322        1.79729671274486       -0.19322357848246
N           -2.24220202768445        2.74782462862672       -0.37523115431806
C           -1.49720984668227        0.40560136783311       -0.03875688325201
C           -2.81525358173519       -0.01994719086280        0.27511543768394
N           -3.69851772871491        0.90067688464084        0.71652394372437
C           -3.35998422198245       -1.32723338515727        0.17694740015914
C           -2.77688225657994       -2.51860886796113       -0.14710408759075
C           -1.41662385761471       -2.78505967092139       -0.33830933834275
C           -0.37790204551601       -1.90014757461241       -0.23572853109924
C           -0.34551416261711       -0.49591034825884       -0.08806996802010
C            0.91717508010013        0.10158146093900       -0.02292744568526
H            4.87493654679362       -0.29686526866443        0.34046291341381
H            5.01411191807317        1.41067043790955        0.41558925208750
H            2.78439116097671        2.89272415126839        0.09456311959994
H           -1.81017432171087        3.65471802608780       -0.51593185939273
H           -2.86052109515480        2.52393306603925       -1.14622051574187
H           -3.40538004638330        1.86362644697238        0.81560838930461
H           -4.61864001778011        0.61666698310729        1.00004944556819
H           -4.42667183854748       -1.36336983874872        0.37164087105474
H           -3.44163267177386       -3.37062380029319       -0.21707120047682
H           -1.15584194954734       -3.81517235110405       -0.53991301885092
H            0.60707222518615       -2.34076064908224       -0.32378835138323
