29
 energy: -50.406651911268 gnorm: 0.000778987632 xtb: 6.6.1 (8d0f1dd)
N            3.98555540360607       -2.13487926378470        0.76212768782131
C            3.08324458800372       -1.46847856339836        0.51029651077655
C            1.94885659936663       -0.68581645747296        0.22353244662432
C            0.69029175707035       -1.31462497007134        0.10807003013399
N            0.63409815235704       -2.71558187408306        0.18584083254026
C           -0.46704834292384       -0.55853427028281       -0.12245497841237
C           -1.70900520581090       -1.21733342886538       -0.48954480346769
N           -1.63926583252198       -2.33620327529386       -1.22895725999147
N           -2.92014980378728       -0.86227499338055       -0.12888573123499
C           -3.30316574244496        0.32529048453135        0.31597308188330
N           -4.43398535853073        0.36363904368708        1.04805854159856
N           -2.78634425296577        1.50640896594383       -0.02035841028746
C           -1.53666507452002        1.70892285489431       -0.34338594601659
C           -0.40125304507505        0.88069056716063       -0.19786961935993
C            0.86755302206077        1.49320934091977       -0.17948994609841
C            1.29016180641899        2.81302055908910       -0.27001661286072
C            2.68751511057785        2.83648980876936       -0.13026577443507
C            3.17069992576927        1.55116520457908        0.06343422661583
C            2.07177663532406        0.68714797146131        0.04513770548952
H           -0.15245398657153       -3.07462716622181        0.70928961924310
H            1.50661339414199       -3.11905961633377        0.50320349138496
H           -2.49470766761449       -2.79819898541234       -1.48357049424186
H           -0.74572840572561       -2.73948768308232       -1.45617944576126
H           -4.85416738425860        1.25901446095501        1.22287062857175
H           -4.96996118838838       -0.47700256694699        1.16620570466325
H           -1.34411130702421        2.72760654514323       -0.66103702184213
H            0.67530206331686        3.68108271334218       -0.41999173778020
H            3.29052361520300        3.72692247969800       -0.17169678037481
H            4.19490420155184        1.26207102795780        0.20763170081404
