26
 energy: -48.030616385298 gnorm: 0.000685830620 xtb: 6.6.1 (8d0f1dd)
N            4.52624810654903        1.92141464720744        0.11630533765484
C            3.53589540807285        1.33730100032697        0.10091033727899
C            2.37949001672165        0.55930937306707        0.08792763630135
C            2.37749453860059       -0.86320044530159        0.08399991170228
N            3.47442007122015       -1.63988360938148        0.10779271670465
C            1.03860885175730       -1.32092076526205        0.03270021523398
C            0.67069870509879       -2.66268364506185        0.04838689286606
N            0.40122716616780       -3.78247228018102        0.05657898318179
C            0.18920581162508       -0.18721192483985        0.00442288450918
C            1.04242922146420        0.99188928992590        0.06088912530532
N            0.56305488354149        2.22693297403272        0.04492145195090
C           -0.73224076961469        2.37866318539460       -0.05380086138895
C           -1.69217180637913        1.33648006860515       -0.09332321128572
C           -3.04249873044317        1.71399531424421       -0.17056043876775
C           -4.18299265736175        0.96467594125275        0.06232750535984
C           -4.19070622326374       -0.40423215393461        0.32667155624882
N           -3.28065367721310       -1.26122358404556       -0.06150579792163
C           -2.04262143399583       -1.12729752870678       -0.38915290331740
C           -1.18468116195698       -0.02668152705638       -0.09335014584674
H            4.38534314103354       -1.21891367194139        0.15676320605064
H            3.38696848338965       -2.64059385349344        0.12122063180317
H           -1.07752061423767        3.40450563850767       -0.05503423981976
H           -3.20097020866756        2.77735038592221       -0.31175832811058
H           -5.12681912967697        1.48997161582009        0.11094725755359
H           -5.06256914059731       -0.85442059449109        0.78782456679288
H           -1.59694190773383       -1.99224565681001       -0.87147723173882
