22
 energy: -35.538833430295 gnorm: 0.000832927746 xtb: 6.6.1 (8d0f1dd)
C           -3.27235423490951       -1.24739782375206        0.00390017355807
C           -3.34760339465989        0.14446442453772        0.00216046859880
C           -2.03572844074840        0.65310407078684        0.00072628853601
C           -1.51914452404672        1.93482694732855       -0.00235806884676
C           -0.14415600883371        2.11290508068337       -0.00387366732158
C            0.76541338051324        1.05229144456295       -0.00254771429424
C            2.13773309417454        1.35842949113763        0.00054715288493
C            3.22882305040414        0.50305356831209        0.00550014189968
N            3.29797205178942       -0.81567534940079        0.00259341668113
C            2.25734741614964       -1.63342356086389       -0.00455986579321
N            0.96220720056542       -1.46234449229802       -0.00365493544183
C            0.24905169784508       -0.33449037806385       -0.00087098539177
C           -1.13608923554312       -0.48227121649665        0.00166199619999
C           -1.93837495449490       -1.64279229996780        0.00363081045317
H           -4.11719320927737       -1.91259908823690        0.00514087648130
H           -4.24753033322511        0.73199499319999        0.00156792381949
H           -2.17375289312361        2.79512543600067       -0.00332504994586
H            0.25323210161604        3.11859700187638       -0.00568216663802
H            2.37527846110515        2.41648122716757        0.00169851323632
H            4.21016946839368        0.97100853508411        0.01161900588042
H            2.54915459058931       -2.68308813015737       -0.01034754237887
H           -1.56462576498334       -2.64862431084052        0.00455745162284
