28
 energy: -45.876893142212 gnorm: 0.000719852436 xtb: 6.6.1 (8d0f1dd)
N            4.48792178727798        0.72508374913427       -0.41693127474837
C            3.26133269903753        0.20702793017913       -0.11468069133260
C            2.18418167331457        1.09629738751610       -0.06048460263382
C            0.80309481712823        0.87934162824487        0.04388654051495
C           -0.01458183138432        2.01665023584140        0.08092272409438
C           -1.40323987041410        1.97786221494237        0.09617838469732
N           -2.13865864098671        3.11457166923160        0.20000701649395
C           -2.01677607884111        0.71659079458943        0.01468404899028
C           -3.33679981503134        0.28011965883988       -0.04872040551729
N           -3.41666255875057       -1.05605098275558       -0.16231140701985
C           -2.16621756479043       -1.52796559014236       -0.15640095521858
N           -1.94914233316912       -2.87467560979174       -0.26768760729994
C           -1.20527535024878       -0.47480635400227       -0.02419790404393
C            0.18499928973908       -0.44219712773431        0.07864838238429
C            0.90173987490982       -1.63647519140132        0.29679182043884
C            2.26098282525344       -1.87322169435361        0.34056075105462
N            3.30697491111316       -1.10661272047240        0.10994307494653
H            5.27462796485236        0.11213840603328       -0.29056535638319
H            4.64252134329739        1.71612381040711       -0.37816627065226
H            2.46968045997453        2.13914638729142       -0.15456665102562
H            0.46570458927200        2.98625411937784        0.09709254455919
H           -3.12918869810493        3.06624003874144        0.04427987118958
H           -1.68602850620919        4.00492192739850        0.09214243888115
H           -4.23978931973757        0.86492477736799       -0.03162465779613
H           -2.78983530030879       -3.38223581063181       -0.50383130585636
H           -1.12693045992864       -3.16086729115085       -0.77713553065642
H            0.28619733831476       -2.49806176304218        0.51367075001892
H            2.55689914002064       -2.89326602915827        0.57698761992029
