30
 energy: -55.719193199531 gnorm: 0.000713975156 xtb: 6.6.1 (8d0f1dd)
N            4.86755229036426       -2.43481418369716       -0.34822442941040
C            4.07156037314042       -1.61689285162933       -0.22853520613450
C            3.12117379415882       -0.57586301075918       -0.08801406426417
C            1.80129076840992       -0.96574186850548       -0.08505021258943
C            0.59667189858108       -0.24315662201773       -0.01944742618979
C            0.45069444943791        1.20237146945855       -0.00112598648566
C            1.52247678107126        2.08140523165178        0.18293904427961
C            2.88856373718757        1.89462262916681        0.24393627346795
C            3.65774534791288        0.73881326041922        0.08132197239821
N            4.99915417848025        0.86295853314320        0.10763474060227
C           -0.86177712414354        1.76828413330009       -0.09906779655846
N           -1.03403593879653        3.13219824962982       -0.17976173112922
C           -2.00815725481876        0.96105129118999       -0.04747703367663
C           -3.28057392975474        1.56349766878610       -0.13002146383079
N           -4.29333853108537        2.09681590555785       -0.21930461634443
C           -1.88255501120254       -0.42975482355964        0.04503914368333
C           -2.76804287007198       -1.51540514366719        0.09602272593134
C           -4.16151310398135       -1.50289324369030        0.13770936250460
N           -5.31017452762903       -1.51496116019172        0.17540747190252
C           -1.93276441324159       -2.66214918705461        0.09384728171823
N           -0.64360037144595       -2.37073054249105        0.04510980854914
C           -0.56212880060199       -1.01934846723001        0.02027628872968
H            1.62699697836991       -2.03569713306972       -0.15213155169251
H            1.23285490935163        3.11267829704727        0.34051513121143
H            3.46900876407716        2.79248990826792        0.42291082697003
H            5.42650195437424        1.76097565630803        0.25173904111588
H            5.59023297378924        0.05369224653198        0.01096065628863
H           -1.98838246487034        3.43480439671228       -0.31066235456296
H           -0.35803070326204        3.67355776663327       -0.69101733767136
H           -2.26365640600154       -3.68455503324149        0.12648196888770
