20
 energy: -36.094864555429 gnorm: 0.000452254766 xtb: 6.6.1 (8d0f1dd)
C           -3.26887362478257        1.12777025808818        0.41445057634784
C           -3.25341239365526       -0.23354774290368        0.12984025384747
C           -1.91429394885971       -0.63485690854847       -0.04018635327674
C           -1.33088001719286       -1.79526489577002       -0.52841334469077
N           -0.01988019835623       -1.97842870606427       -0.55400852430641
C            0.75769361570975       -0.98448366729607       -0.17271568281320
N            1.91068762668359       -1.18432806301504        0.40343167969049
C            2.87267826708445       -0.34143469727947        0.69983995226284
N            3.23756905604293        0.74688668054907        0.05930371735089
C            2.35974651931788        1.39621446328154       -0.69482894011738
N            1.06374479453385        1.39110975857967       -0.56633783478838
C            0.25742246796143        0.44703432515592       -0.15730754980749
C           -1.09451455933146        0.55339494194249        0.14620572162075
C           -1.96506541449142        1.62289355642024        0.41244048850886
H           -4.15102672391225        1.71284770730590        0.60063052370963
H           -4.11116464735484       -0.87432297962825        0.04256545036189
H           -1.92502443681846       -2.62730469613132       -0.88424630022171
H            3.52878979753906       -0.66474362535534        1.50259047107804
H            2.76454527206464        2.14509938983572       -1.36678793723941
H           -1.66876930608196        2.64186964743346        0.57667438298270
