34
 energy: -62.620091149709 gnorm: 0.000807765463 xtb: 6.6.1 (8d0f1dd)
N           -5.89015790914721        0.77415041898195        0.38928379978940
C           -4.84295839451483        0.32771356787733        0.22901658968600
C           -3.55532526450364       -0.21045290319745        0.02601554851329
C           -3.52568289848592       -1.48800801293231       -0.54738745431040
C           -2.47422925725223       -2.35443749765185       -0.59918882720546
C           -1.14681014148129       -2.17554358940538       -0.14373269319482
N           -0.42682277378877       -3.28115008483461        0.02167975235597
C           -0.46497626892558       -0.91717822649768        0.03216362871411
C           -1.08417021632728        0.38715659668015        0.04933277249009
C           -2.46573085275665        0.59931553984432        0.40207283046912
N           -2.75941512344737        1.68969739492450        1.13733628875668
C           -0.27642957880085        1.54040320442720       -0.14192777461909
N           -0.85288005497423        2.80430894877241       -0.29496610345658
C            1.12190178796315        1.46506021014264       -0.17099633588678
C            1.88010708533242        2.62549451016972       -0.41451317881648
N            2.45325954321723        3.59581299826944       -0.63780132001813
C            1.74315606870584        0.23055347085110        0.03277750755287
C            3.07635812780185       -0.19668847260705        0.11306520151511
C            4.25676145890612        0.53785444929277        0.10883642812923
N            5.26902443847641        1.08477849263335        0.12743400475925
C            3.00024043272263       -1.61101050291215        0.23888856444680
N            4.05380413921606       -2.45603301694163        0.30668921448882
N            1.73590540468705       -2.05085848157315        0.23743381753911
C            0.93447229948944       -0.95705022137111        0.11713846127615
H           -4.48185675819328       -1.85652047856881       -0.89880207477990
H           -2.69109318998305       -3.34951656491345       -0.96877388299516
H            0.59778677586956       -3.14809598694310        0.18177110162738
H           -0.82812810195533       -4.17281112184967       -0.21830774283970
H           -3.71974371018521        1.90130722153071        1.35402886160377
H           -2.04353319306268        2.36376029692848        1.35463986353768
H           -1.70843035578738        2.83280923980542       -0.83037466727324
H           -0.18831615619661        3.50479529468383       -0.59712462512542
H            3.88165989094941       -3.40801670818442        0.57826601019283
H            4.95921737433645       -2.06469290243517        0.50249682227901
