29
 energy: -50.411959216170 gnorm: 0.000625607755 xtb: 6.6.1 (8d0f1dd)
N           -4.43464640580356       -1.76848060062662        0.47536511551850
C           -3.52631102548679       -1.08203685556205        0.31953538091847
C           -2.41093793210815       -0.24075918755470        0.12839610745007
C           -2.60939896087075        1.10929947370309        0.38097696027357
N           -1.85481885734280        2.11130845131488        0.01045965489063
C           -0.59493239812136        2.11179457765200       -0.35794426943335
N           -0.21300155027995        3.17580285687629       -1.08390967120103
C            0.40867671149637        1.12691161582659       -0.00847153218245
C            1.72211499340786        1.55977725652490        0.29653734227703
N            1.98471882311140        2.93691018870414        0.46102021792954
C            2.77564086515439        0.66680251042464        0.40304468243087
C            2.55979948709506       -0.68002180112207        0.16263030681332
C            3.36185889085423       -1.83204208644703        0.13063762059886
C            2.50455765077400       -2.87555437862312       -0.16517196196119
N            1.22858520673097       -2.47411086803871       -0.32930666358345
C            1.22157824843435       -1.14041335549352       -0.12949986861998
C            0.12023867365360       -0.26724456180878       -0.14128090011856
C           -1.18742674521479       -0.86673154840296       -0.26669760339510
N           -1.22333248955719       -2.14282280595549       -0.62509953943349
H           -3.55170673110475        1.40739530389261        0.82976617497001
H           -0.89595735312050        3.88476076161062       -1.29019643027946
H            0.76676246769649        3.34368049744568       -1.24724511364362
H            1.28554179427805        3.42377334208302        1.00753154260488
H            2.90777175162741        3.09465977928896        0.84403235064628
H            3.76461776302193        1.03305012876153        0.64496951878534
H            4.41906493886705       -1.89269643145838        0.30012699553005
H            2.75082502621463       -3.91655210032042       -0.28164648423633
H           -0.28130252715427       -2.63456465266085       -0.63296054465140
H           -2.09998711055274       -2.64094772593368       -0.58588408639804
