35
 energy: -66.341259308173 gnorm: 0.000947865950 xtb: 6.6.1 (8d0f1dd)
N            5.31614251231840       -0.97493482181768       -0.73741677868983
C            4.22917229569714       -0.68683497840832       -0.48445861088020
C            2.90161888788689       -0.33746579801703       -0.18505075285100
C            2.59989138439852        1.04172613500224       -0.24484251790781
N            3.60752516815947        1.87338122835483       -0.59768430921744
C            1.35995647407762        1.63689446515932        0.06172301114225
C            1.36211659234548        3.04846652875298        0.12772333232786
N            1.44245924774022        4.19428439812947        0.18686611735773
C            0.06609642057529        1.08006541634616        0.20632097451715
N           -0.85881074426355        2.01610413763769        0.41219626188980
C           -2.15693061557850        1.75224610142438        0.36330436086301
N           -2.99757070601634        2.79436668302433        0.61902605982247
C           -2.58493344658382        0.48740665798559       -0.03647403183895
C           -3.82610052991950       -0.07128513492867       -0.41883628508340
N           -5.02465375790976        0.55268322979830       -0.48306717673038
N           -3.70407911697152       -1.37433354290766       -0.71876530883350
C           -2.42359551650954       -1.71805900115055       -0.53447437628963
N           -2.04224100776236       -2.94934116010932       -0.91350414032525
C           -1.62431300418202       -0.58316305291287       -0.10696346916228
C           -0.27299329017411       -0.33077467493285        0.13063143225428
C            0.67205112292550       -1.37072279003479        0.41107822406181
C            0.12441151060799       -2.53776762158003        0.94729453263269
N           -0.30455508187982       -3.51172828204845        1.39863508139342
C            2.07070257503705       -1.39903106777078        0.25307881924993
N            2.69605085438683       -2.57703998427524        0.50070249813002
H            3.45937707998250        2.86824595021218       -0.58691360430332
H            4.53371402032514        1.51341318873513       -0.75239164067935
H           -2.53556790084291        3.61198156474695        0.98752315158710
H           -3.90708708949573        2.58541165537644        0.99565012555511
H           -5.75887065292823        0.02522994240313       -0.92842200080234
H           -5.02894686392965        1.54878265144059       -0.62896159005156
H           -1.25350553779233       -3.39793036804037       -0.47264625526354
H           -2.81503410229185       -3.54862678188804       -1.16300025877244
H            2.17438182293201       -3.37673441909560        0.81421246784400
H            3.69494134863541       -2.64718617421206        0.41278660085272
