32
 energy: -53.549875207013 gnorm: 0.000725382074 xtb: 6.6.1 (8d0f1dd)
N            3.89852687301619        2.59667726910707        0.75859886267799
C            3.20128387956144        1.72246381003756        0.47870750328764
C            2.36338425366780        0.64121670316906        0.15374397687298
C            3.02697303422854       -0.48543642684289       -0.41426984068504
N            4.31647194869266       -0.30380339750154       -0.80672828982290
C            2.48265442881246       -1.75461960207590       -0.55147664811849
C            1.21173203498599       -2.19646277735611       -0.21622130376318
C            0.05517600063587       -1.50193443519850        0.09725557702708
C           -1.14281674614541       -2.28297762458166        0.30761273102316
N           -1.04382393413092       -3.65463189621902        0.49160396968821
N           -2.36102313905799       -1.81202711350178        0.26515478345362
C           -2.52116685687707       -0.50807399088861        0.00736471465752
C           -3.68794059234698        0.20278316189620       -0.14468856673485
C           -3.33490059919572        1.56114070152352       -0.35611669191152
N           -4.23932734477474        2.57948393929682       -0.52686377271173
C           -1.95367748703070        1.70835347348206       -0.27782082492293
C           -1.39009298660466        0.43410362408176       -0.05733678097374
C           -0.09826406504855       -0.05692776374782        0.09546328300620
C            0.99087086306071        0.84004886112730        0.38109678987898
N            0.63536663239515        2.01778060899109        0.93440132348163
H            4.78924932420040        0.55979878327256       -0.60360424881829
H            4.86709524789600       -1.09818512715866       -1.07798912207602
H            3.16242931731293       -2.50922397601873       -0.92848298381113
H            1.08333725910854       -3.26768532171658       -0.30570290616877
H           -0.33134927537205       -3.97276661169608        1.13022921747209
H           -1.95134759844849       -4.06032552019513        0.67107201976581
H           -4.68564987480582       -0.19096869658633       -0.13258568034558
H           -5.15962991873733        2.30687122906948       -0.83176435428613
H           -3.88732321586105        3.42552533382186       -0.94559040399990
H           -1.43284930264442        2.62799337717133       -0.47978773720182
H           -0.32691422270045        2.15816597097632        1.19606294801057
H            1.33702304070717        2.68195619036188        1.21481033884904
