23
 energy: -39.259905104795 gnorm: 0.000584781029 xtb: 6.6.1 (8d0f1dd)
N           -0.41585624500465       -3.13344251967003        0.07717037711299
C            0.10730750392939       -1.85444048394942        0.06812152886999
C            1.49277433103791       -1.70332476349118        0.11364498350301
C            2.04009707343887       -0.43659318300913        0.04445645051073
N            3.31493501218179       -0.00910753658987        0.05689917444365
C            3.19861853409280        1.31896976274388       -0.00876473009466
N            1.96310556079910        1.82309734694055       -0.06503644753951
C            1.17653940172489        0.72935236817396       -0.03673958967892
C           -0.21555457611032        0.62332128565069       -0.03214360019150
C           -0.94260960583057        1.82053647449151       -0.10080643195040
C           -2.29747386546699        2.04904085726040        0.05083166149580
C           -3.25580235109436        1.05364600229985        0.23879585015927
N           -3.15906218919261       -0.20976135199404       -0.08656272570147
C           -2.11765087561118       -0.95187391953422       -0.34263310003593
C           -0.76095094758259       -0.73659452324830       -0.04101195715278
H           -1.33418759114911       -3.26458822991005        0.46608663697987
H            0.24031813492290       -3.86055813103794        0.31308648273925
H            2.13011587013858       -2.57294584558524        0.18202273712888
H            4.06306653436802        1.95784528478818       -0.01646654195404
H           -0.30194323746286        2.69070270415435       -0.18704795591778
H           -2.63285145357891        3.07623534736333        0.08813575258489
H           -4.23815559050091        1.33707534588583        0.60399129912228
H           -2.38088094934921       -1.90804286293303       -0.78847454673362
