31
 energy: -53.847295645944 gnorm: 0.000307055263 xtb: 6.6.1 (8d0f1dd)
N            5.02001729994269       -2.27561467241086       -0.59486423111165
C            4.02552857409272       -1.71458149726094       -0.44612682383867
C            2.85630279540876       -0.97506684961872       -0.27517577868843
C            1.54521278533466       -1.45035364231650       -0.24048460675458
C            0.68321284534691       -0.35184725419852       -0.08806389509060
C            1.49253505621958        0.83429365387564       -0.00303903251741
C            0.88375349931134        2.07221968533923        0.26053067890470
N            1.62548300374561        3.20567174799278        0.44815095490675
C           -0.50724421438323        2.12944633819637        0.25998509855664
C           -1.33220389899645        1.02142455338091        0.06380812972281
N           -2.61878782272020        1.29842489872733       -0.12933907784436
C           -3.64387756163059        0.47280909137052       -0.26181257305665
N           -4.80532208511539        1.12161227766308       -0.57136058994508
C           -3.71827451036491       -0.90461660553947       -0.01607517796652
C           -2.63306270403860       -1.73999872257015        0.25353765154248
N           -2.88312366306119       -3.04795262067005        0.54202758147546
N           -1.33218109828982       -1.48133553815253        0.16834912004802
C           -0.71644840810232       -0.32391372401922        0.02364478735679
C            2.83446264095840        0.44453090551711       -0.13994674063656
N            3.95363952373036        1.24582315813882       -0.11309513000238
H            1.24325763336512       -2.47578234593250       -0.33228138162071
H            1.13236909133634        4.00915364452510        0.80447049836037
H            2.56312054689731        3.08270198379293        0.79421539431844
H           -0.99561825030643        3.08561775347392        0.38167582821518
H           -4.71576133556027        2.08383696517512       -0.84817895708224
H           -5.59463737462831        0.60102828685594       -0.90891616454699
H           -4.70139917526285       -1.35750188327199       -0.03362480025101
H           -2.09438955248526       -3.60831802689930        0.81311882760167
H           -3.80448388838242       -3.34579764496160        0.80499378225786
H            4.80808185387815        0.76232389150129       -0.35477984090946
H            3.86278842975980        2.14594575329566       -0.56074820450397
