27
 energy: -46.953590233085 gnorm: 0.000904008963 xtb: 6.6.1 (8d0f1dd)
N           -3.03118698606923        2.97437328229603        0.36508583052346
C           -2.67534354072701        1.88910478926090        0.24457456058779
C           -2.30161468959019        0.53487829010245        0.08736712599602
C           -3.32382186071176       -0.40163444482091        0.28638013423972
C           -3.28617197906835       -1.76101159513802        0.08624451075386
C           -2.17575212535099       -2.49610009944939       -0.37498246434454
N           -0.92201640855195       -2.18565901917989       -0.42167146855115
C           -0.30718452400561       -1.01917494518796       -0.17625791990478
C           -0.91914987237984        0.31615482262451       -0.14857345556795
N           -0.19445615915270        1.41875314484666       -0.26016827702526
C            1.14050743279775        1.39414338904479       -0.22890712548852
N            1.74747904890749        2.59504710669317       -0.40068566079520
C            1.82769014203640        0.20587482001096        0.02677028329803
C            3.18174685986448       -0.13925075933973        0.19409346967922
N            4.24451937526403        0.72412163427148        0.27071623606644
C            3.26476553351242       -1.55250121251854        0.22425963416781
C            2.00501303621543       -2.08966216586438        0.09579149489585
C            1.07290314441952       -1.02687511351247       -0.01457597270358
H           -4.27609358796982        0.02281165940312        0.58495682705403
H           -4.20190377744642       -2.31539825764424        0.23788011169062
H           -2.37600072550090       -3.51390032789192       -0.70484202360147
H            2.70228640978394        2.61492983751392       -0.71541323666013
H            1.13970945104232        3.34276418316964       -0.69668879465362
H            4.06017489371657        1.62873864320606        0.67709740174956
H            5.11411281543926        0.30886766096344        0.56938611397009
H            4.18140702573370       -2.10276966218375        0.34072020323771
H            1.74765683059017       -3.13120284068041        0.08759831928760
