31
 energy: -53.841644317178 gnorm: 0.000752254013 xtb: 6.6.1 (8d0f1dd)
N           -0.10375552580059       -3.17318609167799        1.15371512262728
C           -0.53634315023031       -2.18428234392827        0.73368961394964
C           -1.08966142616551       -1.00194907947153        0.25247097524959
C           -2.47619225376758       -1.07152652244223       -0.03245259150209
N           -3.02973314940139       -2.32273150803556       -0.06105943063709
C           -3.32501596072345       -0.02110679950724       -0.35873045752153
C           -3.08345936550135        1.35020657836039       -0.25985920708659
N           -4.15563304219045        2.17583261265388       -0.46894210319701
C           -1.89247485825606        1.96977218762465        0.11340245075327
C           -0.59403970148069        1.48109222318732        0.26859601748268
N            0.28180637047782        2.46594278304224        0.55971899792418
C            1.57616069201533        2.24396041178822        0.54559601661554
C            2.09469775239287        1.02338336926179        0.17073977333833
C            3.39817017223108        0.53093366703973       -0.09600508881289
N            4.55332642201579        1.22843035784597       -0.06807402989700
N            3.36432440650445       -0.75149419839295       -0.47550613254511
C            2.08176693907920       -1.15874240753619       -0.43913898431874
N            1.81050608725986       -2.39355821876403       -0.91512458473863
C            1.19794723329142       -0.09467129405852       -0.03574602635545
C           -0.17679641551083        0.09539253757223        0.12359101233397
H           -4.03088280459556       -2.40650032194993       -0.05868692848804
H           -2.50434895269796       -3.09628378768073        0.31002311362659
H           -4.33532930790588       -0.30565543889667       -0.63005865301578
H           -4.97552253278146        1.80508001283077       -0.91558800545346
H           -3.98554118054710        3.16074892294287       -0.57232661269109
H           -1.94166862690551        3.04573057356698        0.22799753097690
H            2.20245892600276        3.08967185804999        0.80711399194419
H            5.40728217484351        0.70692213622853       -0.16387345570516
H            4.58067301420879        2.10991027881853        0.41205497231167
H            2.64915740800036       -2.91856314018448       -1.11830277047948
H            1.05544217203860       -2.92793941258791       -0.50728857648887
