29
 energy: -50.408836030880 gnorm: 0.000577280060 xtb: 6.6.1 (8d0f1dd)
N           -1.74509497445778       -3.64545441829183        0.33786405899747
C           -1.09943877403764       -2.69573622332946        0.26900705782351
C           -0.23924382124051       -1.58838291320935        0.19310755204883
C            1.16031725981602       -1.82170748752450        0.18899160407651
N            1.63211080832220       -3.07748764978039        0.34301157980918
C            1.99994901834611       -0.72574154218351       -0.00923932338469
C            3.39695277014573       -0.62202940657942       -0.12388317564285
C            3.73060037799854        0.71191355470271       -0.30192104833776
C            2.56313491743910        1.48533432106390       -0.28227200970182
N            2.51509488520252        2.84427598476201       -0.44035657511061
C            1.45600045865034        0.60857213376902       -0.07804939716400
C            0.09601013249268        0.86190106063755        0.09796613865124
C           -0.38109978573857        2.11770409108233        0.51091677034048
C           -1.69108599953868        2.49716752763276        0.77261868339374
N           -2.83190394430342        1.94980546949912        0.42315799450234
C           -2.91970635508744        0.76960961863716       -0.20742624346977
N           -4.08244777465636        0.56550453135017       -0.86660104762899
N           -2.09761589774723       -0.25710069854574       -0.18517827216058
C           -0.79700264245409       -0.30576589450695        0.05571540653382
H            0.98814411015919       -3.84871174535124        0.38871290294093
H            2.61232119606909       -3.26003185768730        0.23297267085672
H            4.09965437106765       -1.43547685354786       -0.08711814681550
H            4.72291495981060        1.10110015366838       -0.44128147264938
H            3.35427875819496        3.26712230025893       -0.80640077092767
H            1.65532987467594        3.23082156229004       -0.79787441452601
H            0.37716788311359        2.82986519983007        0.80919196994869
H           -1.82452092500187        3.43707737060666        1.30314422514502
H           -4.82949506282782        1.22034097442073       -0.71590715405912
H           -4.29469045591574       -0.37128413867634       -1.16347845519122
