31
 energy: -53.837777498059 gnorm: 0.000694679655 xtb: 6.6.1 (8d0f1dd)
N            3.38473508211453        3.54169361754443       -0.33003779047591
C            2.91284905085827        2.49501306438236       -0.25993941659972
C            2.32436916352849        1.22165059665079       -0.15647123514638
C            3.07128519487317        0.13842198431718       -0.59709767495886
N            2.88979974828700       -1.11152285391391       -0.25869446250558
C            1.81893206159690       -1.68521834116806        0.24396315468740
N            2.05056478418286       -2.79174829309524        0.97021874568249
C            0.44872684286801       -1.28734793837348        0.00596578614160
C           -0.52391127309483       -2.28085291789767       -0.19222307630244
N           -0.14591600987132       -3.63724950822035       -0.31889425475982
C           -1.87973121217061       -1.97161260880995       -0.24514471021567
C           -2.28852555286023       -0.66693564658516       -0.09961661312848
N           -3.54202093357781       -0.18934917624296       -0.17588858662673
C           -3.42097329963606        1.13978519114484       -0.08252670275843
N           -4.52545914961696        1.94590675535544       -0.07442798177197
C           -2.08640870831172        1.56760869706883        0.08742518592568
C           -1.31265724198291        0.40569397514164        0.09383175673053
C            0.06836986887223        0.10158836715574        0.13939605653247
C            0.99535834687750        1.15725479511585        0.37111132934862
N            0.56161755663365        2.25630740025460        1.01393909512719
H            3.98268794463328        0.32805036791894       -1.15328584308003
H            2.99945362153400       -3.11208733947169        1.06484654783803
H            1.27989625054570       -3.39520991494006        1.21009423947493
H            0.64129844035915       -3.78125549881674       -0.93888262740015
H           -0.93116953558667       -4.20529527563211       -0.61031466068636
H           -2.60947823449952       -2.75040326314701       -0.41005531241585
H           -5.36875884901964        1.49667730868204       -0.39356601190661
H           -4.39724626362624        2.89739698095241       -0.37806183929550
H           -1.79655746148062        2.60189132226446        0.10728375851751
H            1.15231080823543        3.06724501804779        1.09088802823919
H           -0.36265929996495        2.26471841731717        1.40919336988886
