31
 energy: -58.681023502557 gnorm: 0.000747964967 xtb: 6.6.1 (8d0f1dd)
N            4.88566974602260        2.15624758314569        0.52894797726116
C            3.93638505807152        1.52121197545196        0.38595839337416
C            2.83440132142129        0.68623776211941        0.22184999346549
C            2.90506868805375       -0.72595989981659        0.18714977788984
N            4.04565965185832       -1.45410376747947        0.24917602952684
C            1.60415345538092       -1.25503720237451        0.00752297280492
C            1.32275756246101       -2.61254895611846       -0.00097355320016
N            1.10595230800617       -3.74691892121077       -0.01733811412681
C            0.69578924876422       -0.16495730078582       -0.06994945784481
C            1.48080068024776        1.05086519807951        0.09411641935952
N            0.94616503227239        2.26389034972910        0.12270472443445
C           -0.35377833354782        2.35727183824770       -0.01257849657334
C           -1.23228028304233        1.27126958405258       -0.19303252147233
C           -2.64698723207701        1.52395947777686       -0.32650722806592
N           -3.04522463804173        2.66416302647628       -0.91232027642305
N           -3.60679220729362        0.78547277281857        0.19047317481636
C           -3.48021434198310       -0.48437179277733        0.55499086917110
N           -4.34855461110368       -0.94113774830961        1.47013533084028
N           -2.71335682054900       -1.38925490803084       -0.04232269053207
C           -1.53608794092538       -1.18099452498288       -0.57121339585711
N           -1.08971045462336       -2.08443971328769       -1.44678328859089
C           -0.67862870861839       -0.04426194709891       -0.24171325065388
H            3.98005072072579       -2.44589896910448        0.40279640824594
H            4.89069765191080       -0.98824630560042        0.53313486654903
H           -0.74911443717276        3.36127898399252        0.08288853376936
H           -2.37700605072224        3.33890115006251       -1.23738548460388
H           -4.02414459871552        2.89344734109689       -0.89732668031064
H           -5.05272992093120       -0.32366332630618        1.83104641954683
H           -4.38521006880552       -1.92586985315534        1.66195132403639
H           -0.11908475046716       -2.09386236098575       -1.71375860574688
H           -1.61736795507648       -2.93448707372452       -1.56460131808973
