28
 energy: -50.688383938163 gnorm: 0.000706328939 xtb: 6.6.1 (8d0f1dd)
N           -5.36629119439388       -0.77321375349874       -0.68037511402944
C           -4.23892058423353       -0.61265709504455       -0.51012323733078
C           -2.87279307089094       -0.38279886927456       -0.29059436224565
C           -1.97459151257306       -1.40936495644961       -0.58094798692732
C           -0.61254541304028       -1.45013660914273       -0.37276144919808
C            0.27084839688898       -0.40775032952930       -0.04462588499405
C           -0.12468944263746        1.01494708835450       -0.03618686308580
N           -1.33667651692364        1.44869605834350        0.26131761806299
C           -2.50683597787663        0.87084939042822        0.30387100738717
N           -3.47469075466454        1.57760118982259        0.92935592780539
N            0.75414710481383        1.98514304183610       -0.24505458302868
C            2.06478373744977        1.74929855849239       -0.27472962738770
N            2.85233038994558        2.79737360695376       -0.57201625591470
C            2.57372157697723        0.47411099583092        0.02265845479031
C            3.83714775271199       -0.10265526806086        0.16967398903459
N            3.76392776709594       -1.42183306336836        0.38607413986866
C            2.46568962647215       -1.75755038267879        0.36130837870502
N            2.08203119729326       -3.04776279161518        0.53998969852904
C            1.63716315873618       -0.61625519739017        0.12760899872442
H           -2.42575806459630       -2.31607268253071       -0.96868953941562
H           -0.13455193435465       -2.39618813064410       -0.59504201535104
H           -4.43702399503418        1.29317209045273        0.86324981015007
H           -3.24793115032689        2.50716254897573        1.23838810648244
H            3.85127972346491        2.71561448073813       -0.54109077037792
H            2.41586341372289        3.68679593303663       -0.74087427556793
H            4.79805145320601        0.37941916572386        0.14138515089959
H            1.16013224884778       -3.22233564969370        0.90518465757480
H            2.81555620327521       -3.66254613654856        0.85677324513640
