29
 energy: -50.406283202197 gnorm: 0.000504932866 xtb: 6.6.1 (8d0f1dd)
N            3.72021568264602        2.67420999478228       -0.45637090393602
C            3.05418012511779        1.74383053633528       -0.32180025745530
C            2.26333767128496        0.59587232372124       -0.15377966692244
C            2.93904594652063       -0.55200013740417        0.34281233608596
N            4.14150812021060       -0.39003315296946        0.93267116863676
N            2.56888385258407       -1.81254180535713        0.18951125532653
C            1.39332146791325       -2.27287578114879       -0.15149091465710
C            0.12307395170395       -1.68295916220729       -0.16688636122976
C           -0.96605157310206       -2.58508424050922       -0.23136616024617
C           -2.27472072426958       -2.18855668274098       -0.15136958363538
C           -2.55208786699074       -0.83403777266617        0.01212734688070
N           -3.73712595515255       -0.25386058968872        0.16779675300130
C           -3.48094756882472        1.06886585745424        0.31208107703121
N           -4.51253484234727        1.94729824979092        0.46210224175479
C           -2.12055945220759        1.37802181885985        0.20647848225290
C           -1.46479353398183        0.15173612862796        0.01282266795598
C           -0.13282370847966       -0.25797603040303       -0.13987545957495
C            0.88261324377429        0.71327275244117       -0.42558638822883
N            0.47369981936136        1.88109719787206       -0.95349876703309
H            4.66550917293898       -1.21582193999500        1.16432315753351
H            4.58345050152356        0.51221137889532        0.96804206461457
H            1.42044401363439       -3.34236261215108       -0.34644210293826
H           -0.73464990911812       -3.63745525690519       -0.31396452453906
H           -3.08337136909230       -2.90149084571519       -0.18770962616998
H           -4.30820250666628        2.83969851487058        0.87967414083835
H           -5.39338759796251        1.52812059492381        0.71114476969609
H           -1.70800356047363        2.35681063683937        0.36716343930837
H            1.14092164814374        2.59931062635106       -1.17975732366165
H           -0.49182874758879        1.98783092879606       -1.21736822238880
