22
 energy: -39.556745832212 gnorm: 0.000856773919 xtb: 6.6.1 (8d0f1dd)
N           -0.47461542082212        2.53309456687634        0.00115732454959
C           -1.09983120224786        1.36677323982689        0.00087570945583
C           -2.51502611728516        1.35720947833714        0.00121470353855
C           -3.37330305356290        0.28793959514037        0.00102151381472
N           -3.16175499688875       -1.02694034103877        0.00045428062390
C           -2.00820467304287       -1.63249310439975       -0.00005321194350
C           -0.67390746876828       -1.17148920705900       -0.00016944743674
C            0.33250120188212       -2.18054384633160       -0.00077316845031
N            1.62516699121335       -2.00342644842084       -0.00099485627874
C            2.04478625770467       -0.74027287976027       -0.00061723497386
N            3.29415159421269       -0.26345244053869       -0.00072011680422
C            3.13321048766786        1.05906445327146       -0.00019487309719
N            1.87800606392760        1.51739934941183        0.00025777451423
C            1.12682485189116        0.38744369504336        0.00000766961832
C           -0.25007334301836        0.20151719531862        0.00024967234621
H            0.57086939818590        2.51231918299912        0.00091198578206
H           -0.99488648452053        3.39516481027589        0.00160234009663
H           -2.97486856357823        2.33898259972449        0.00169888426572
H           -4.43451813889815        0.52268404459917        0.00137971105334
H           -2.11439528435345       -2.71583887200698       -0.00046119051302
H            0.01372056875755       -3.21557710226209       -0.00108949294164
H            3.97310352874372        1.72957225969330       -0.00013249311986
