30
 energy: -54.930578063920 gnorm: 0.000971759296 xtb: 6.6.1 (8d0f1dd)
N            4.06037480927491        3.16271393168585        0.21343955272387
C            3.42842709910417        2.20348431687531        0.15805913012219
C            2.68891415687011        1.00823362569244        0.08570698940932
C            1.31761671849182        1.08462914543433        0.26832460916872
C            0.33242176897442        0.10114149621339        0.11615111590735
C            0.56760429423231       -1.32202347576680        0.01547459066152
C           -0.51908293055511       -2.16735454366754       -0.23022873597467
N           -1.78323361458472       -1.79591148686132       -0.33530297508382
C           -2.05453179757195       -0.52050209974319       -0.15619388580075
C           -3.30238094278472        0.13028085637842       -0.16463946383070
C           -4.56590755982634       -0.42394930735270       -0.34373635594118
N           -5.63810206426296       -0.81772581717661       -0.48931858328380
C           -3.05471541004784        1.51011590797465        0.03738953682877
N           -4.01337151679558        2.45823489767899        0.13062654885595
C           -1.66577097426173        1.72416289280545        0.17730629634058
C           -1.02222764816504        0.50269109625606        0.07549231851246
C            1.85741604728222       -1.90391361514053        0.26801068795535
N            1.90131492645304       -3.14001138081102        0.79426904798898
N            3.04491010636490       -1.41146517168837       -0.02632766553656
C            3.42206070639746       -0.17550696971784       -0.25779608919006
N            4.65326541624848       -0.03145698815913       -0.78214807266478
H            0.94124996596208        2.08152985738407        0.46273054314804
H           -0.35500429222205       -3.22518558834060       -0.39901497881665
H           -3.75975565466727        3.42988097228783        0.12898998038919
H           -4.96342274024068        2.21005395763172       -0.08588246717011
H           -1.22288248085159        2.68999776230491        0.34005206071426
H            2.79808949858081       -3.57674364145360        0.92050651547540
H            1.06198398945943       -3.63401523780196        1.03612857424176
H            5.06364955352203        0.88063956694071       -0.88667440584197
H            5.20011885025522       -0.85386255044836       -0.96784736167147
