29
 energy: -51.197157180348 gnorm: 0.000870009438 xtb: 6.6.1 (8d0f1dd)
N           -3.08912394722539       -3.19263170719240       -0.23060424288005
C           -2.56513195595678       -2.17385598274210       -0.15921129102539
C           -1.97797088904794       -0.88775265242979       -0.08142856074573
C           -0.61080170558662       -0.85741767891397        0.07479681960033
C            0.30957119146774        0.20947913462805        0.03924131489330
C           -0.00675976921092        1.61408370001515       -0.00307617582058
C            1.05082408979374        2.51497635098533       -0.24369110146665
N            2.32692968036316        2.21270988903154       -0.34392227786959
C            2.66765218202705        0.94867936162911       -0.18220549466564
C            3.94880687478005        0.36740537720832       -0.19233623403170
C            3.79203733524380       -0.98979258139902       -0.03059130332443
C            2.41121345139455       -1.31245414803185        0.08277988215182
C            1.94338130767237       -2.61188124973223        0.26182659737312
N            1.57727243431473       -3.69388660045616        0.41622714674658
C            1.68037373687953       -0.11504669385042        0.00237688561492
C           -1.31303341819316        2.16252060223382        0.23356876751534
N           -1.37244707366032        3.46559887558528        0.59690179664106
C           -2.54885276383628        1.53721678277867        0.07483173797648
C           -2.88865423218338        0.21095955557232       -0.15492347162979
N           -4.18975225553068       -0.08079581987668       -0.38199752197781
H           -0.14935016322201       -1.83555579975791        0.14850414875060
H            0.84280961053570        3.56272351412356       -0.42268015292052
H            4.87203649350180        0.90032942442421       -0.30875943493235
H            4.57932841193618       -1.72156953092208        0.01000926149797
H           -0.54048415033870        3.96996333926925        0.84111111619502
H           -2.26205789210648        3.89694671095363        0.77396656852527
H           -3.40020758388873        2.20739549624587        0.14793053194320
H           -4.88209325824238        0.64606636376872       -0.39582603345616
H           -4.48398643537093       -1.03685241893549       -0.48689371777300
