24
 energy: -38.993901482947 gnorm: 0.000503197956 xtb: 6.6.1 (8d0f1dd)
N            2.57718338257056        1.94891400562111        0.69553195409810
C            2.11340535554505        0.80433616515689        0.15606083914453
N            3.04576254153710       -0.04747580762692       -0.19633325421635
C            2.96353455134694       -1.33380701443044       -0.43488958654036
C            1.92800852991237       -2.19322363690094       -0.08932042811847
C            0.62966110208546       -1.81710140334764        0.20792026280374
C            0.01094076279017       -0.56379905262983        0.09269582690006
C            0.68806271339507        0.69941766759912       -0.07952967042951
C           -0.03212131816667        1.85769898906537       -0.35067986061692
C           -1.42135381515951        1.87764127751866       -0.44030709492716
C           -2.11714928936477        0.72325951256218       -0.16706679219813
N           -3.45512259537226        0.52414679259350       -0.14275806118191
C           -3.61795585045090       -0.75838750580635        0.14782894650376
C           -2.40877553981560       -1.45596693978370        0.31978951668659
C           -1.40339028530455       -0.51402703349563        0.13003208821481
H            1.94947443782761        2.65676861304530        1.03071308839184
H            3.56532728362966        2.03393386370544        0.86071232026509
H            3.86925043984722       -1.75497754657229       -0.85830405689789
H            2.14564934120313       -3.25259647655275       -0.10738750579830
H           -0.05034162381209       -2.62901756046569        0.43233494186163
H            0.50744710949327        2.77741398759702       -0.53000489156913
H           -1.94364593812056        2.78946984673549       -0.68545750245792
H           -4.60882969383788       -1.17033851964058        0.23492048604201
H           -2.31954825947879       -2.49942832134730        0.55640659433987
