27
 energy: -50.967112719749 gnorm: 0.000423830735 xtb: 6.6.1 (8d0f1dd)
N            5.38871685088032       -0.14502454565987       -0.36922466879378
C            4.24736670636724       -0.27280611434694       -0.29576380012482
C            2.85372471931039       -0.38565724439737       -0.18119215738590
C            2.22705283474114       -1.53974737406305       -0.64962379721179
N            1.01297750351774       -1.97254444469134       -0.44498099866460
C           -0.06272605297468       -1.32711394149190       -0.02423272643554
N           -1.11836797471217       -2.07682937044198        0.24355312664740
C           -2.35108453240931       -1.56823628969438        0.26222861342676
N           -3.33692825515270       -2.40932146244095        0.62161575011685
C           -2.57804899577971       -0.22573952774266       -0.09002272302361
C           -3.68083463322356        0.62630267755593       -0.21121711543118
N           -3.32495400162463        1.90583354704514       -0.38618665469023
C           -1.98359856850524        1.94444467204623       -0.36756433267991
N           -1.27040338753052        3.06914711340107       -0.51815049079659
C           -1.43009344906833        0.63656980719520       -0.19950792417469
C           -0.14464100388789        0.15998244959832       -0.02293637967613
N            0.86161168133999        0.98872591314701        0.25229714783977
C            2.14242476836327        0.73178771200055        0.37714710048307
N            2.86827660311867        1.69596267601932        0.98344272598523
H            2.84672659300277       -2.24119287513860       -1.20277292205537
H           -4.29901139913982       -2.13975993129693        0.52977353571238
H           -3.09419848115277       -3.36748266670435        0.80385059847369
H           -4.72466024551767        0.36997008699970       -0.17196051439079
H           -1.74677933752184        3.95390096108566       -0.51728814110144
H           -0.28131750337721        3.01483527674279       -0.34092586358448
H            3.86965898206399        1.62599055434661        1.03456911377376
H            2.40227014937208        2.51706328372919        1.32563003866242
