32
 energy: -59.161182896750 gnorm: 0.000907336186 xtb: 6.6.1 (8d0f1dd)
N           -4.46808189251734        2.80705638522883        0.60935412150890
C           -3.65657272085656        2.01393399697515        0.42330368711710
C           -2.66948972831163        1.03389309766412        0.18588939043917
C           -1.36759109759703        1.52227314416325        0.13539683705453
C           -0.12519195956562        0.92234348036330       -0.04231662403355
C            1.00329223638890        1.78210642784800       -0.16683517888584
N            0.85993408931009        3.13551717277431       -0.30949062720891
C            2.32214681244717        1.28051416804378       -0.09902112536193
C            3.40903122460873        2.16831677802423       -0.21631168986470
N            4.25806248333999        2.93274475123310       -0.33428509587517
C            2.54276898842764       -0.08234071928785        0.06133017552337
N            3.70430740299810       -0.72597070492318        0.15693589180750
C            3.38298690070246       -2.03304765974982        0.24090889020325
N            4.34332640255118       -2.96123489580153        0.37800107400734
C            1.98334294406130       -2.26066885325379        0.19100541788400
C            1.40552587973265       -1.00730687901505        0.08026360873251
C            0.07788633679380       -0.53432364232715       -0.02300936972561
C           -0.91901538148791       -1.48715044310286       -0.11457426581707
C           -2.31781114870232       -1.41399264212175       -0.18157183505175
C           -2.97115078521762       -2.64998094120984       -0.36955545611533
N           -3.51815408537727       -3.64889318233682       -0.52642159529630
C           -3.15187289179703       -0.28949314103345       -0.02324143748706
N           -4.48526997977412       -0.47041151286845       -0.05587600646415
H           -1.33700052535582        2.59472657207341        0.29650994328946
H            0.02791232605878        3.52085734797084       -0.71790673844724
H            1.70736342705761        3.66063488049704       -0.45731474464048
H            5.30056849118289       -2.65856334980935        0.35190606234158
H            4.12358209301275       -3.93966323414230        0.35790527820865
H            1.51684719110950       -3.22453677560967        0.24748541503962
H           -0.55171494281779       -2.50597446025344       -0.15860048646788
H           -5.10835336611694        0.30762109724988        0.08545340220643
H           -4.86729229608981       -1.39302639446268       -0.18448935741795
