24
 energy: -39.784736122641 gnorm: 0.000551137192 xtb: 6.6.1 (8d0f1dd)
N            5.29723651049794        0.62794500839978        0.00110679256726
C            4.16575470792016        0.43444772477130        0.00116152160076
C            2.77533695345825        0.19231718424740        0.00077766055918
C            1.93228465257780        1.31045152399812        0.00176126502371
C            0.55718261118578        1.33334389391761        0.00139660219530
C           -0.37904228248758        0.27966419604022        0.00026505166586
C           -0.02530976062994       -1.15346951025311       -0.00022694656325
C           -1.04811821636311       -2.10931407930098       -0.00044609758641
C           -2.39086613077333       -1.78190636177117       -0.00056822757320
C           -2.75973593199875       -0.44804679391254       -0.00047441720153
C           -4.01139349844273        0.18639092687769       -0.00065066736923
C           -3.79590979948148        1.56528304219123       -0.00040697944158
C           -2.43225229559368        1.82223002841091       -0.00003866336552
C           -1.74097038995405        0.58596731868050       -0.00005664789230
N            1.19478588916896       -1.70113716027117       -0.00069012403105
C            2.37449605773865       -1.15996021677447       -0.00053537876454
H            2.43279566757421        2.27211779361200        0.00283141705757
H            0.11659938243302        2.32157190800366        0.00218772770010
H           -0.73593677448195       -3.14189156911562       -0.00067911775905
H           -3.14109831202772       -2.55982721001991       -0.00083525412569
H           -4.96547439509519       -0.30728120856982       -0.00092242857795
H           -4.56719242682196        2.31428967591378       -0.00049195964673
H           -1.99500444712806        2.80378463721761        0.00013743597696
H            3.18039961982477       -1.89127466239305       -0.00139059704870
