30
 energy: -55.726110356067 gnorm: 0.000511976260 xtb: 6.6.1 (8d0f1dd)
N           -5.73292070321798       -0.42150435275177        0.78265949072554
C           -4.63214178854030       -0.16371987835736        0.58092082342563
C           -3.29413088229131        0.17343154237333        0.33762056673467
C           -2.82473434604447        1.48381358508831        0.08801122549624
C           -1.44721572863129        1.40953173542340       -0.06131546345651
C           -0.44689986300718        2.37417491623319       -0.29467241824898
N           -0.71279321901811        3.66198024641497       -0.55056548606462
N            0.83833007627685        2.03937942034477       -0.23269428742880
C            1.24022876711802        0.78728901080513       -0.04158264341575
C            2.63135610053330        0.69695104947152        0.18273403867717
C            3.29578566987950        1.94919231105578        0.22894688092688
N            3.88940765243923        2.92960068709216        0.27454520587776
C            3.44237546063047       -0.41319727176753        0.42385668971565
C            3.13636278157672       -1.74482120008732        0.33082211954694
C            1.92191764760004       -2.34786173031965       -0.05224876737348
N            1.96317953746042       -3.68958869988258       -0.22945324901049
C            0.67479358364708       -1.69663645299670       -0.21709078933481
C           -0.33992430113426       -2.56744307569813       -0.67930561981025
N           -1.05360734091536       -3.34422303983157       -1.13705774778948
C            0.30662127208806       -0.34144468679348       -0.03467327240035
C           -1.04499823644692        0.02657192651232        0.06643805352890
C           -2.22054151465631       -0.71461330489871        0.31895498089577
H           -3.44190406657339        2.36250146660656        0.04603863350376
H           -1.65518123846721        4.00686275788408       -0.54652898920708
H            0.06148547116224        4.29591735416067       -0.65239462260230
H            4.46769860542965       -0.17687323192523        0.68340429929319
H            3.94609920596591       -2.43807467917642        0.52156958861938
H            2.83542627600328       -4.18034116967387       -0.14965412568909
H            1.14738276149859       -4.19795607278496       -0.52574058269613
H           -2.29696708836355       -1.76529083142382        0.51921084146285
