33
 energy: -58.886101251996 gnorm: 0.000915637412 xtb: 6.6.1 (8d0f1dd)
N            5.44577464506343        0.97414931780923       -0.31387967893455
C            4.33199102453081        0.71054631802373       -0.20040571603789
C            2.97250036138027        0.36544896130116       -0.07866905997253
C            2.11822723165772        1.37070273547582        0.35020948394008
C            0.73258807261163        1.39197633182370        0.42210880917848
C            0.23183216190321        2.55998028861323        1.03106149149963
N           -0.12963149204698        3.51220456829958        1.56660677428471
C           -0.23573025817735        0.40324704366217        0.05143731886930
C            0.08797523325863       -1.01483596013435        0.06769475292909
C            1.36795196256233       -1.55860491680956       -0.11862171435283
C            2.62423041004943       -0.99821470516435       -0.30743987773308
N            3.62605904523500       -1.83098761909607       -0.68756083031634
C           -0.97168647130217       -1.93655853626239        0.22047123619825
C           -0.70246524365213       -3.30464085393927        0.37583763018321
N           -0.54208562896941       -4.43789883172118        0.50472542896239
C           -2.33828781413859       -1.55579846063892        0.20031980575478
N           -3.30405926229393       -2.47549121383580        0.41123976184283
C           -2.62327779979630       -0.22486408134044       -0.09003301218668
C           -3.84419130470058        0.43612470649533       -0.30699487327299
C           -3.58322162318894        1.75869341560208       -0.61545383093016
C           -2.19987682303959        1.98730642440590       -0.56799351855152
N           -1.62923931824513        3.12840862659949       -1.01732765781103
C           -1.56028571870267        0.74882716062901       -0.19794989939469
H            2.60685959277762        2.29393868679241        0.64727493716774
H            1.36715083044450       -2.64071742390552       -0.20547065117641
H            3.46277882695287       -2.82089174153797       -0.73594357264558
H            4.57377160374990       -1.49626482921053       -0.72389405172110
H           -4.26861237846825       -2.21904077520018        0.31671189501693
H           -3.06085857293682       -3.44375584946551        0.53022932939834
H           -4.82227845007744       -0.00797357934369       -0.25965165243176
H           -4.31366694915797        2.50498405052474       -0.86741248819633
H           -2.23938405834233        3.91698813862496       -1.15487537731334
H           -0.66862268634077        3.34193680902333       -0.81414253584825
