28
 energy: -51.497020195115 gnorm: 0.000565391861 xtb: 6.6.1 (8d0f1dd)
N            5.60935720930697        1.16203827392909       -0.01723078457091
C            4.56156494833421        0.69491299213884       -0.01371686974147
C            3.27187963199869        0.11432213998510       -0.00918881482399
C            3.22662212809793       -1.28847370609997        0.00744779155138
N            2.21332399876548       -2.10419029471150        0.00378732932682
C            0.90099917601914       -1.83235157540706       -0.00696235275916
N            0.15910835427516       -2.92843845677360       -0.02309607225285
C            0.18700459402644       -0.56629351986713        0.00209260927956
C            0.81709444306212        0.74119862916695       -0.00613788640082
C            2.18864158043918        0.99210873550234       -0.01592243513504
C            0.00144747479765        1.90291976728988       -0.00644341039937
C           -1.37213295672781        1.86563612024977        0.00326260234063
C           -2.13661846976447        3.05111110692528        0.00664636811013
N           -2.77242875206759        4.00601748880205        0.00750855734391
C           -2.01693228975500        0.61038259973078        0.01255405515832
C           -3.33175071634680        0.19771956542782        0.02375457501865
C           -3.27801933835217       -1.21986126063337        0.03143022441806
N           -4.33921768666385       -2.05775981564620       -0.00573507350041
N           -2.02262866169557       -1.68318412714002        0.02447774510398
C           -1.20369331196484       -0.59509815261907        0.01142076086033
H            4.18629913208851       -1.80019287337239        0.02293130128937
H            0.63986521427432       -3.81377819674172       -0.03003879805959
H           -0.87718867616862       -2.80462135091950       -0.01882195558420
H            2.46481336540406        2.04136677165989       -0.02590773396224
H            0.49215347809933        2.86578875504371       -0.01322415732468
H           -4.21615809548546        0.80293472847129        0.02529739456979
H           -4.17543821495921       -3.03357152282722        0.17136182009090
H           -5.24844285673796       -1.68905674056395        0.20976092075282
