30
 energy: -54.925772228383 gnorm: 0.000230064642 xtb: 6.6.1 (8d0f1dd)
N            5.01294185030626        1.22130236105108        0.21736218633292
C            3.90567712600207        0.91399041761589        0.13700506617056
C            2.55158368026796        0.55868207517417        0.03339082298311
C            1.64398289030138        1.62274865177546       -0.22628230923765
N            2.16159101608179        2.82342584694473       -0.56805959432903
N            0.33353758912833        1.62988388128491       -0.12050125908799
C           -0.55418240430577        0.66602036615252       -0.00059392055692
C           -0.33290097723245       -0.78694041838795       -0.11961895517462
C           -1.43938791417578       -1.62222009501187       -0.24638660495296
C           -2.76912971992971       -1.19478963348733       -0.15414200193623
N           -3.78144443195587       -2.07126831615704       -0.28767194554651
C           -2.99589161257642        0.16921955889351        0.10087307642702
C           -4.12788296435034        0.97256321515091        0.26820239839711
N           -3.79429687570989        2.26279748913534        0.44915624160115
C           -2.47074255992418        2.33801605397722        0.39210144065807
C           -1.88431267299262        1.06755590159976        0.17980328842459
C            0.95005015400867       -1.39036121927391       -0.02236266326865
C            0.96632015754887       -2.80161830497421       -0.01382034303014
N            1.03248968947667       -3.95090216676558       -0.01231661691213
C            2.23352645825024       -0.81195509581996        0.14428741356738
N            3.26600947533200       -1.65185675504358        0.39508823287053
H            1.52385266050700        3.59480765319538       -0.65773906589515
H            3.15352696025997        2.98560260234227       -0.56948387775486
H           -1.27051875813401       -2.68100795923103       -0.38785483292368
H           -4.73033551275093       -1.76574374801224       -0.17104919746878
H           -3.59515115109256       -3.04758872885629       -0.43547937801162
H           -5.16400525362012        0.68314717910615        0.26194276979276
H           -1.96268102267285        3.27609253916084        0.51135625285139
H            3.12125454057565       -2.64640044642801        0.42218984250323
H            4.20250713517685       -1.29080503111112        0.45733954070703
