25
 energy: -42.720922497391 gnorm: 0.000495011639 xtb: 6.6.1 (8d0f1dd)
N           -0.05981457201394        3.34341383386874        0.10613327077116
C            0.32114853206474        2.01679908980432        0.06977441242293
N            1.61393145232677        1.81887223628889        0.08294032665273
C            2.05069282171383        0.55396005934756        0.02816015237118
C            3.32751001049580        0.01214588349735       -0.01161096448737
C            3.13928789526554       -1.37610798072209       -0.02483148977603
N            1.85874296949010       -1.73993638010255       -0.00225387192078
C            1.14232701002784       -0.57842486218822        0.03146447953665
C           -0.22897943583487       -0.38973542107966        0.02821002922046
C           -1.08713718653926       -1.56931153726883        0.02143796876611
N           -0.46184436892200       -2.72931496013164       -0.09632624076675
N           -2.40462715559196       -1.66510344414371        0.19545658553480
C           -3.30371529540275       -0.71720913523101        0.13259937864044
C           -3.17793524001832        0.63167316350358       -0.18483820211396
C           -2.00786698125759        1.36993327886118       -0.23995618483885
C           -0.68703338160942        0.97638507773540       -0.02165816222204
H            0.73348916206674        3.95074578220053        0.25313676162568
H           -0.86890934169267        3.58704400527535        0.65370522742913
H            4.26256880802078        0.53391534363736       -0.03226890402686
H            3.90682200663662       -2.13037484544824       -0.05776882107867
H            0.58848738496886       -2.70565749168216       -0.10661952767476
H           -1.01556189394310       -3.56977457116313       -0.05639261711424
H           -4.30913576798149       -1.08371050899633        0.32403731145171
H           -4.10166423793053        1.17380251171524       -0.33780231909850
H           -2.14540741874021        2.42182982672240       -0.45707573540417
