29
 energy: -50.408495114967 gnorm: 0.000860864841 xtb: 6.6.1 (8d0f1dd)
N            0.86371185942399        3.73282507094541        0.49562622096343
C            0.49970174999903        2.65193102141901        0.34658536652700
C           -0.02908902077835        1.35969962886565        0.19376691383415
C           -1.43364192753724        1.20664139602573        0.17382935775044
N           -2.23889935870329        2.29432389839702        0.31298644162198
C           -1.94105638596042       -0.07362886144763       -0.05529741404971
C           -3.25565072653855       -0.55829826017539       -0.21701352216827
N           -4.41089660569020        0.18888222784609       -0.26464734290875
C           -3.18960725535156       -1.96592994498711       -0.29587306159409
C           -1.87492599299036       -2.36396204131888       -0.20281925136892
C           -1.05699954095012       -1.21345703497216       -0.06790414103687
C            0.32644742155125       -1.08635482609571        0.05124500686836
C            1.13701507135470       -2.20053878394720        0.33591797441364
C            2.50259529196519       -2.24054533796964        0.55993285268677
N            3.44738986476483       -1.35919783421332        0.30545042745102
C            3.21227545379219       -0.14334861447405       -0.19540420137537
N            4.28662340291443        0.45388887898544       -0.75301224907700
N            2.12990379187752        0.61367395641768       -0.14264410454589
C            0.86579245271884        0.27872535302320        0.04231624386434
H           -3.18007423590375        2.14120646056398        0.63414626721249
H           -1.79643001679361        3.15570208414882        0.59626123835495
H           -5.23040059907564       -0.33377977661782       -0.53876841335738
H           -4.33781794970253        1.08397350502967       -0.72564826444510
H           -4.04054706006809       -2.61077850830058       -0.42328051341216
H           -1.52934354306557       -3.37935264742097       -0.26001968063386
H            0.60624622200654       -3.12706750740076        0.51040586021093
H            2.90003437630452       -3.16541857871834        0.96969569012412
H            4.22430977280031        1.43160787377802       -0.97634442699520
H            5.18298735963724        0.01111691701321       -0.65684783611523
