32
 energy: -59.158434663129 gnorm: 0.000762949333 xtb: 6.6.1 (8d0f1dd)
N           -4.55476953564989        2.06104581488495       -0.60523465216255
C           -3.57176282347426        1.49887502379473       -0.39501046741138
C           -2.36733045905497        0.81588283146785       -0.14544310512023
C           -2.43261667013834       -0.59505039554929       -0.23256179235135
N           -3.62008091487376       -1.13239905508642       -0.59357242949812
C           -1.38806573765696       -1.49090100356199        0.07345057309688
C           -1.76534009821537       -2.85281269415742        0.15377450190267
N           -2.16609059379605       -3.92865581774311        0.20972583549694
C            0.00452938300750       -1.28879548253489        0.21929810275839
N            0.65706190380501       -2.42530837269547        0.46228871801239
C            1.97657465456088       -2.47685292179747        0.43785349675428
C            2.73065595010083       -1.39109611835306        0.05507771864624
C            4.11807060491466       -1.21870929122938       -0.18727272980502
C            4.32737024282970        0.07283057832775       -0.59797208385532
C            3.09714411072860        0.77814927191836       -0.60385876160305
N            2.97550279212975        2.00812471441147       -1.13373187386357
C            2.07169769172704       -0.12430604401093       -0.16044117594604
C            0.69798926457471       -0.01453280987302        0.08143404737546
C            0.07322738474112        1.23834798736969        0.35260421459521
C            0.93137342301544        2.23812910226055        0.83396045511492
N            1.60869453141207        3.07427754005986        1.25019842233418
C           -1.28189971694958        1.62477442296913        0.26572144976982
N           -1.56901280908739        2.92426622986032        0.52686878288158
H           -4.42472958107146       -0.54495399391190       -0.73200850542026
H           -3.73579025484451       -2.13196940457365       -0.58637241057134
H            2.41420178852690       -3.43574908255615        0.68090522056762
H            4.86169684801746       -1.98542494976813       -0.07565598470603
H            5.26673880193174        0.50744821121224       -0.88683896492043
H            3.82176959918285        2.50937316636712       -1.34707971537326
H            2.14114884662744        2.55443916761791       -1.01148574649889
H           -2.52268660640610        3.24261733684501        0.51152187898083
H           -0.85373221061461        3.54664127423636        0.86130919241989
