29
 energy: -50.403203755700 gnorm: 0.000608523666 xtb: 6.6.1 (8d0f1dd)
N           -3.72527709832446        2.70191839637537       -0.09542157403736
C           -3.17102136703779        1.69367953208889       -0.07522463587922
C           -2.52931789543049        0.44137796896274       -0.03445977623419
C           -3.37798257185673       -0.64491814501825       -0.18653705348794
N           -3.16356406122316       -1.94652614725894       -0.08205204755228
C           -1.98479231649339       -2.50230319354608        0.13408403309804
N           -0.75334491613174       -2.07489788661893        0.11427815347924
C           -0.30721614800384       -0.79169755163084        0.02610323341087
C           -1.08571102715222        0.43524552872214        0.05792695421579
C           -0.42545229788039        1.64589388486019        0.11252043410138
C            0.97854585584354        1.79141197230170        0.09651409870931
N            1.52607439596100        3.04754685858481        0.16794389034965
C            1.73248410582529        0.63807475571615       -0.04163095279000
C            3.13420450652296        0.36944370217619       -0.13186318071870
N            4.11941129914631        1.31453273150355       -0.18048691773391
C            3.32895668048703       -1.01194833655655       -0.12282467686919
C            2.08401429406970       -1.64642053888966       -0.06778967169820
N            1.78045886851209       -2.94528885170089       -0.06659899014762
C            1.06504033929835       -0.63045606666264       -0.03788153538452
H           -4.42154791760651       -0.40818160496301       -0.38556431851131
H           -2.05918120395541       -3.57550183567576        0.31931950796534
H           -1.01616943356892        2.55037291702495        0.17200667728446
H            2.44189730955383        3.12120610704903        0.58029575454998
H            0.88866018170691        3.78452798123269        0.42871130770935
H            5.04075219980257        0.97296179011605       -0.40778601684980
H            3.88116142052539        2.19333128224203       -0.61276590610700
H            4.28266817853174       -1.50445869655899       -0.17213053284279
H            2.48699233708130       -3.65412953992205        0.02191990701394
H            0.78102914889716       -3.13001921935407        0.04071247215670
