33
 energy: -63.689886701390 gnorm: 0.000634782399 xtb: 6.6.1 (8d0f1dd)
N            4.82972766784789        2.65202269893694       -0.67366216116720
C            3.95049115613980        1.94270159130558       -0.46384464778108
C            2.87480834381744        1.06593457823685       -0.19809638848135
C            1.62869783220116        1.68361345456892       -0.13438410211975
C            0.33628370872611        1.21096767176952        0.06029352636822
C           -0.70261181669975        2.18383343045008        0.18090649271055
N           -0.42360847281745        3.51211099012667        0.32506485053603
C           -2.06129927834009        1.81475488946414        0.10799707308909
C           -3.05930875963612        2.80366260140370        0.21145938056953
N           -3.83254430014185        3.64599755280530        0.31442731152037
C           -2.41235928937108        0.47595971675641       -0.04271203406364
N           -3.63736844043081       -0.04475338390341       -0.13978482854322
C           -3.46814079116940       -1.37287442667093       -0.20786312290841
N           -4.50458879371159       -2.20974597433501       -0.31961315501909
C           -2.08543860713161       -1.75384982542775       -0.14563647215417
C           -1.65494159930868       -3.07201175990099       -0.20870377695985
N           -1.36093712991148       -4.18484189605986       -0.26799264999822
C           -1.37508276959931       -0.54692900364019       -0.04373751741769
C           -0.01278564623817       -0.21560631043616        0.05626374851987
C            0.88979612062622       -1.26827991868000        0.16542487686279
C            2.28098331127088       -1.32906275250899        0.22020636338534
C            2.82555421958220       -2.61619232303916        0.43798180858616
N            3.30897823104776       -3.64049405763994        0.62727776497913
C            3.22569424630964       -0.29303728124444        0.02374133514287
N            4.53030705679292       -0.61119954649436        0.03222641873099
H            1.70334607617593        2.75239651375611       -0.30460234946137
H           -1.21114469571511        4.12672269529962        0.45745721066650
H            0.45016241259490        3.81851647730975        0.71276344056270
H           -4.35826348212038       -3.20200755722979       -0.37629583896227
H           -5.43178896373770       -1.82658119022750       -0.36773088697158
H            0.42189816018393       -2.24497723921206        0.23471920136385
H            4.81818702780693       -1.56630866150052        0.17399652956398
H            5.22926802655633        0.09506349485980       -0.13322466784987
