28
 energy: -51.482868554353 gnorm: 0.000742105949 xtb: 6.6.1 (8d0f1dd)
N           -5.29865510060082        0.09996708749194        0.04858864708303
C           -4.15341173172396       -0.01626500530522        0.04593982818660
C           -2.75418341096571       -0.11881811861284        0.03765449996405
C           -2.20411731536854       -1.40794245857812        0.12980596939901
N           -0.97594924915806       -1.82518568114950        0.09084553541423
C            0.15252635846111       -1.09723132897529        0.00847001879141
C            1.32786647601207       -1.87138718622080       -0.04655662964714
C            1.19826408332411       -3.27801415693447       -0.07769111601343
N            1.15144738847077       -4.42377978571322       -0.10920110914570
C            2.62198662542166       -1.32624344442572       -0.05443171914873
C            2.75017367902378        0.03755848195124       -0.00495293074082
C            3.87794814851620        0.91386211860043        0.00966315050887
C            3.43731703357981        2.21259006356885        0.04509425098223
C            2.01637367616757        2.21663600634611        0.04964316573118
N            1.17366099612585        3.24636496390320        0.07028312509782
C            1.57488985079211        0.85931812625883        0.02281124371352
C            0.27498918159812        0.36257195834228        0.00990916520240
N           -0.70882336232398        1.28361704693905       -0.03009210072743
C           -2.01380451627460        1.10165510706046       -0.05696560495878
N           -2.73131071318649        2.24241826788763       -0.15716509839989
H           -2.92489455698886       -2.21606397447894        0.23356254009022
H            3.47705702595565       -1.98537450254642       -0.08810588952727
H            4.90290850397595        0.59229604969495       -0.00773422642782
H            4.05130870921334        3.09408484637237        0.06356760324609
H            1.48880398113932        4.20009762255650        0.10159369664363
H            0.19255589341468        2.97226612981731        0.06058152721281
H           -2.25715023565857        3.12313283154663       -0.24621493554782
H           -3.73576462984244        2.21216920410270       -0.19554410388231
