30
 energy: -50.128998354060 gnorm: 0.000641983824 xtb: 6.6.1 (8d0f1dd)
N           -5.21235077142137       -0.34204204385130       -0.01985929040465
C           -4.06644966680060       -0.21898803729845       -0.01008565996596
C           -2.66966362707834       -0.06819031991763       -0.00029696520287
C           -2.18622398838825        1.26010308396896       -0.00740369965954
N           -3.11932819879869        2.25120696775670       -0.05359673980219
C           -0.85561845892891        1.67240817276110        0.00513895627293
C            0.36032352252587        0.99182910224104        0.01137942196083
N            1.40891674425881        1.82240465477187        0.01520124569300
C            2.65848195288582        1.36720445312672        0.01470275068300
N            3.62905789105834        2.30574401583076        0.04577659136813
C            2.94650732106073       -0.00628776549523        0.00576766479251
C            4.13028880055563       -0.74806989651457       -0.00192302654458
C            3.78387395107530       -2.10227328508827       -0.00562665895624
C            2.40506377146063       -2.22545223162743       -0.00095672449808
C            1.84329523767180       -0.92888714718099        0.00531717199588
C            0.51617399997661       -0.46564422469104        0.00967136829330
C           -0.52573159904476       -1.38929360264862        0.01218059976552
C           -1.91225058059930       -1.26509901449867        0.01524763666094
N           -2.61959244581275       -2.43044778266481        0.06134357326081
H           -2.82937369631515        3.20789569082135        0.03279828908621
H           -4.09750911690753        2.03395610704607        0.02425626834779
H           -0.71785040787372        2.74804336494005        0.00445661394774
H            4.59055088990762        2.04170287424435       -0.06166738991479
H            3.36147023973316        3.27105237298692       -0.02821861091326
H            5.13306157174238       -0.35842941811122       -0.00381346969427
H            4.48276039034156       -2.92002361502573       -0.01124927029063
H            1.86987720075043       -3.15774999972968       -0.00222566539445
H           -0.19080598138985       -2.42037416418573        0.01682053765476
H           -3.62002198752582       -2.42018153232925       -0.03268550286780
H           -2.13953443071970       -3.30668469313717       -0.03247734217410
