25
 energy: -43.506855518580 gnorm: 0.000501894876 xtb: 6.6.1 (8d0f1dd)
N            3.85988283418390        2.91169853416088       -0.00460044456424
C            3.28240502119896        1.92026734531547       -0.00477591502760
C            2.56492508348612        0.70097123833962       -0.00377965039333
C            3.32751135353749       -0.46451120495182       -0.00436910063640
N            2.95340798203449       -1.73121098553026       -0.00254684772939
C            1.72743835319418       -2.19698578805780       -0.00017331043615
C            0.44604377950274       -1.61418040598779        0.00098326656057
C           -0.63616281979656       -2.49819271723334        0.00328890875175
C           -1.96366681333069       -2.09628319251950        0.00477170293144
C           -2.25324270762258       -0.74662443313206        0.00486555011975
N           -3.45191304157593       -0.14731030219263        0.01186347329795
C           -3.20141258814532        1.17072250076206        0.01361215137708
N           -4.20827648630600        2.06788699186380       -0.02404703847642
C           -1.81215759558534        1.46769899930560        0.00913538745533
C           -1.16988827662229        0.23991085281846        0.00356059763731
C            0.18599293017616       -0.16083036070519        0.00052928475939
C            1.15949534153634        0.81672365188520       -0.00199812235598
H            4.40757629009215       -0.34112892916153       -0.00643922747700
H            1.72198623636031       -3.28631010012013        0.00125619878205
H           -0.41997458342314       -3.55718810810728        0.00342991376601
H           -2.76089974564048       -2.82273726450692        0.00593624400584
H           -5.14139716646776        1.71909747255210        0.10960729787346
H           -4.02240302177692        3.03465026688663        0.17412722442499
H           -1.39468766944412        2.45584216144197        0.00947803164527
H            0.79597389323427        1.83780941727449       -0.00296643769165
