26
 energy: -43.243655520568 gnorm: 0.000796476915 xtb: 6.6.1 (8d0f1dd)
N           -5.59635439606127        0.30414705101165       -0.00036722877527
C           -4.45448503595588        0.18670730342321        0.00081989693247
C           -3.04835045109874        0.04541557801556        0.00022358201570
C           -2.55356885106656       -1.26165468095250        0.00034049834213
C           -1.24687907247241       -1.68538514164045        0.00033621302898
C           -0.02526613034778       -0.98010243448230        0.00029239281975
N            1.02453064041946       -1.79609084099819        0.00029685214905
C            2.27744864542777       -1.33490696934054        0.00033440241340
N            3.24504564549638       -2.26985539650238        0.00030951494046
C            2.55253071063023        0.03992774196203        0.00042403507109
C            3.72320608602302        0.79509790495011        0.00052873823479
C            3.35876855106227        2.14880128654044        0.00056397011188
C            1.98169962379734        2.25863033567037        0.00046666758068
C            1.43194917353728        0.95409658821164        0.00037657289400
C            0.11757731544599        0.47697878022214        0.00026974622719
C           -0.94518005518573        1.40333181695131        0.00014207659569
C           -2.30607434774019        1.23630990279746        0.00011938276218
H           -3.30748932496591       -2.04087184432823        0.00048769319841
H           -1.09400442828723       -2.75760836884818        0.00040160635681
H            2.97907747823776       -3.23854886185324        0.00019995044696
H            4.21337392466001       -2.00923221801535        0.00027390148387
H            4.73117298058102        0.42079726314674        0.00058442733965
H            4.04991055885049        2.97237725802541        0.00065390788292
H            1.43557872759020        3.18359996199115        0.00047884297864
H           -0.61725927208596        2.43523901659717        0.00008473239125
H           -2.89867038779155        2.14445656494495        0.00008974697734
