32
 energy: -58.376826185219 gnorm: 0.000723894884 xtb: 6.6.1 (8d0f1dd)
N            5.53995065846268        0.81156001848210        0.18751564405908
C            4.42065052380110        0.54484950723600        0.13240344728856
C            3.04817968080336        0.26234265627588        0.05950950028174
C            2.67820379258472       -1.07592016674419        0.08830268528410
C            1.41537040124707       -1.64091145482371        0.02190871451902
C            1.36959705191881       -3.05300027930648        0.03762116051342
N            1.38360648259849       -4.20134785153141        0.04382331448137
C            0.14123664386852       -0.99522000324334       -0.03737580688417
N           -0.87603563047972       -1.84047814113636       -0.09540200768568
C           -2.15394687196314       -1.44794548934027       -0.09155373449920
N           -3.07108365319005       -2.45963166289132       -0.16745057944696
C           -2.47246547597798       -0.10308600419841        0.03847860048997
C           -3.67670127586493        0.65388655409784        0.14172502333552
N           -4.93299245023710        0.12968882100776        0.19182757625257
C           -3.35052556452233        2.01448768746450        0.14453550545340
C           -1.96395583717602        2.14892078490252        0.07646330615078
N           -1.19842346337822        3.24599445876574        0.07393559933180
C           -1.38678779795030        0.83174333972701        0.02715378376306
C           -0.05664850976173        0.44753411608068       -0.02729713931385
N            0.86078024827463        1.44566370635687       -0.07628353162265
C            2.16543696633113        1.39510605765563       -0.06278134558339
N            2.77067101362685        2.60548015388180       -0.15560444533205
H            3.49981202978057       -1.78136854909054        0.16230301927670
H           -3.94503388328922       -2.26512588159502       -0.62784427790509
H           -2.65581085651269       -3.35602648041271       -0.37540814956794
H           -5.02280812013065       -0.80535957000164        0.55577376343831
H           -5.67390400041822        0.76333401084667        0.44697683181794
H           -4.05800293803600        2.82060606206129        0.20801943315740
H           -0.20353005467822        3.05098588862695       -0.00147724668313
H           -1.58916592872456        4.17046442367675        0.05150258057826
H            3.77298949427371        2.67745488366687       -0.16844278830440
H            2.21069415491928        3.43000761050274       -0.27265018044426
