29
 energy: -46.406295447605 gnorm: 0.000522201364 xtb: 6.6.1 (8d0f1dd)
N            2.52478267660328       -3.29842820373269        0.39446526069813
C            2.49671546557108       -2.15288401978980        0.25579437970263
C            2.51975524357338       -0.77234805338615        0.08907436737536
C            3.72815537004009       -0.04050269860023       -0.00409523802685
C            3.44780119406644        1.29917423251088       -0.16011404705193
C            2.05021388659270        1.45161150447165       -0.16097390513315
C            1.23467938118755        2.55778234965445       -0.32438469748609
C           -0.13267301901411        2.41183353593923       -0.23235260711007
C           -0.76418445081547        1.17102690714056       -0.01996576992786
C           -2.18098681258392        1.18875798132767        0.21865498972213
N           -2.72853208646530        2.39763354004988        0.55141091043832
C           -3.10157103940243        0.15687404842436        0.07578201380098
C           -2.92347561806916       -1.19994715052551       -0.17226700928065
N           -4.03787766288021       -1.96544859423519       -0.33173291782913
C           -1.68714690741375       -1.87358162327585       -0.14320371709377
C           -0.43632979686429       -1.35044254301673        0.00482918892842
C            0.04388182345030       -0.02048548199156        0.01010230909104
C            1.44545593489648        0.14593828594729        0.00112466225306
H            4.70605326500634       -0.48683146201117        0.04347827668879
H            4.16437811700357        2.09325443804092       -0.26261956364602
H            1.66318397672518        3.53234158084939       -0.51272547271343
H           -0.73993572774096        3.29116411007096       -0.38805557149723
H           -2.13496023602804        3.10582005246668        0.94521493168514
H           -3.69253673938755        2.41442862732937        0.83768746340214
H           -4.13859689971378        0.46252145694592        0.18096121034839
H           -3.94036734790947       -2.93097740101807       -0.58880273467858
H           -4.93428063607267       -1.53243206588579       -0.46199164041607
H           -1.74890544513929       -2.95184750347054       -0.22619055214156
H            0.35162986168379       -2.09017663582989        0.04843114829793
