29
 energy: -51.209084667731 gnorm: 0.000403139053 xtb: 6.6.1 (8d0f1dd)
N           -5.56604097864258        1.53900422199395        0.00337773937646
C           -4.52751529036140        1.04629506516701        0.00181169592128
C           -3.27098249995558        0.40626602037292       -0.00171615045451
C           -2.15621471600698        1.22874864185149       -0.00028435466255
C           -0.78690512209365        0.93607385117457       -0.00020881062618
C            0.08475387940535        2.03713503034899        0.00696327781504
C            1.45975624732305        1.91287059436077        0.00724834948020
C            2.02213657547286        0.64924559352677       -0.00162546193179
C            3.36018031911998        0.21842473382162       -0.00767154137813
C            4.50390395113195        1.00854343218586       -0.01719637321589
N            5.47207360296715        1.63226352998711       -0.03508320314560
C            3.34889539752437       -1.20369494989180       -0.02098832168571
N            4.45609119829915       -1.98249242892226        0.01627231086906
C            2.01849149417361       -1.64830816262616       -0.02303488365887
C            1.17382088717958       -0.53808721907162       -0.01137346457455
C           -0.23262992437424       -0.41481677180898       -0.01036814580328
C           -0.98857963577155       -1.59313570299315       -0.02337567306246
N           -2.27303965075822       -1.86584764881022       -0.01766235611760
C           -3.29649180625369       -1.02581514096241       -0.00301133597238
N           -4.49582443283319       -1.63686810699717        0.00867528046122
H           -2.39139138951254        2.28865935540481        0.00336356045295
H           -0.34876979689351        3.02692842223846        0.01325086212489
H            2.08983606942830        2.79040482135093        0.01386062498724
H            4.37177348748219       -2.96695667105255       -0.16501362813567
H            5.35342184977482       -1.55134320332827       -0.12640790381869
H            1.73726200185176       -2.68480367255859       -0.03122345314851
H           -0.40308862219664       -2.50757333467474       -0.03913460540468
H           -5.35452793500487       -1.11336169297596        0.01806898453392
H           -4.50994075067552       -2.64216421431145        0.00649959937480
