33
 energy: -62.913000448908 gnorm: 0.000744306501 xtb: 6.6.1 (8d0f1dd)
N            4.50233190557102       -2.07774969663841        0.21619306213422
C            3.65563049655292       -1.30142389255456        0.15772243025403
C            2.65212351683961       -0.32201674978384        0.06688377485036
C            3.01469374125177        0.89757946393520       -0.57839217352908
N            4.04256443695953        0.90022993362145       -1.44290747776743
N            2.51263815949349        2.07045615805663       -0.25757696491067
C            1.36978507243896        2.36588948122305        0.31251991744249
N            1.31858861568665        3.56266734957251        0.91559678820009
C            0.16040197657555        1.58093647657273        0.20833536421490
C           -1.04705051454906        2.26577947400874        0.05657680450643
C           -2.26464214983250        1.60825269830848       -0.08727773861362
C           -3.44614402721970        2.35647031478389       -0.26045864316462
N           -4.38116343696060        3.00846327712162       -0.39147343538733
C           -2.27583488643887        0.21210687049582       -0.08359301811192
N           -3.31993221746080       -0.60204000014491       -0.26805528861835
C           -2.82881883235509       -1.84568199152126       -0.24855167360876
N           -3.62982533706685       -2.92470303965601       -0.37891095696278
C           -1.42173493940740       -1.87796390763486       -0.01810767587558
C           -0.67677262641966       -3.04477023816303       -0.05188989053355
N           -0.09101265730483       -4.03941823165485       -0.08449022916672
C           -1.03182371996399       -0.52059733010800        0.10583676800898
C            0.18552845297400        0.15342536133551        0.27693814377475
C            1.38184695567433       -0.60289403830690        0.59091710385841
N            1.24852077056230       -1.67530762735096        1.38322028740143
H            4.37370200433035        1.77794264152483       -1.80314958719232
H            4.56986651103328        0.05990085414920       -1.60836715324144
H            0.46371111494112        3.90546917193867        1.31662990349674
H            2.13767231458333        4.14602379129971        0.90577351551205
H           -1.04415475930371        3.34406677728215       -0.01657946518752
H           -4.57076917464707       -2.75629644187781       -0.68992885111704
H           -3.21144350256480       -3.81802787131713       -0.57415247436686
H            2.00004003402368       -2.34422104244283        1.45441695541719
H            0.33042975900267       -1.98295476357416        1.65978531678272
