26
 energy: -48.044015323812 gnorm: 0.000319062673 xtb: 6.6.1 (8d0f1dd)
N           -5.19258806498817       -1.73747398933488        0.00377722814706
C           -4.18369077045655       -1.18957969322203        0.00365653173879
C           -2.95777991332030       -0.48445405930288        0.00263494082240
C           -1.80817970038974       -1.25858823539757        0.00199237183961
C           -0.45606933930557       -0.89265307787870        0.00105384601411
C            0.49064011594466       -1.94058114050145        0.00035548169103
C            1.85092269424249       -1.72991137130569       -0.00051107742272
C            2.32775305387106       -0.42450839268326       -0.00060523868146
C            3.59745920737011        0.18110850367293       -0.00127618709389
C            4.84069339510622       -0.44762508385035       -0.00236094676197
N            5.86233175257092       -0.97515329824821       -0.00258976521897
C            3.33950221249132        1.57214751447339       -0.00081484048878
N            2.04647257540177        1.86492170455408        0.00002420380820
C            1.39093038784523        0.68488240074190        0.00017165050667
C            0.00764949988682        0.47991630441088        0.00096109187774
C           -0.79662535878975        1.64207036913518        0.00176038344010
N           -2.08054663598351        1.84424888867330        0.00230123664257
C           -3.06258173865090        0.94091739522475        0.00247614466912
N           -4.28539856326782        1.49288777135988        0.00266545828057
H           -1.99257280866335       -2.32826988658184        0.00218237719365
H            0.11850280472945       -2.95493463678785        0.00050692056448
H            2.53721314373281       -2.56459303335570       -0.00108173907618
H            4.07690200764527        2.35487300843366       -0.00108941844284
H           -0.21682562747563        2.56224709166062        0.00187315952215
H           -4.34368117253192        2.49765927103637        0.00263498893325
H           -5.12205171621491        0.93333589347353        0.00288813199532
