32
 energy: -59.168893274827 gnorm: 0.000830126804 xtb: 6.6.1 (8d0f1dd)
N           -6.04126486973568        0.39482998481269       -0.72151319167499
C           -4.93316718803635        0.16212093959171       -0.52062198524230
C           -3.57711465150249       -0.07628912195154       -0.28908629429612
C           -2.95744808427056       -1.32291238699863       -0.13403941504602
C           -1.58580164527200       -1.11075376306552        0.02337784616794
C           -0.52856363652177       -2.00021767451527        0.24700673516334
N           -0.72389161388822       -3.32225225365630        0.38995173718512
C            0.78427065671691       -1.45904997749396        0.28796846163457
C            1.81370808765094       -2.38273405310593        0.54894774559820
N            2.54118082591204       -3.21719978967159        0.86175653499808
C            1.05166095068471       -0.08282944542647        0.15995368643576
C            2.37265725282918        0.32574883867831       -0.14179012512728
C            3.24692609843134       -0.63890349235477       -0.68246683375451
N            4.00976664030028       -1.30658936621668       -1.22749470776626
C            2.93334703150589        1.63636701948424       -0.09360106138058
N            4.14071998212255        1.84219556640750       -0.65832302042674
N            2.45646683650557        2.70333441883970        0.53390671176185
C            1.22113686392780        2.89726567725899        0.93223532638340
C            0.06793550707874        2.17741498365958        0.67772963940143
C           -0.06736354113381        0.85109765991199        0.23465806392953
C           -1.33916330673143        0.31154859251062        0.00753711453175
C           -2.59451215048161        0.94218269720978       -0.21048711364503
N           -2.85890904346386        2.26976619945747       -0.33906745530044
H           -3.47312844837867       -2.26558780749917       -0.14877381101678
H           -1.64905917111548       -3.70562337819496        0.32970739428628
H            0.05991654051802       -3.93809460716120        0.52736122024774
H            4.67042956442833        1.08486816531321       -1.05479119726476
H            4.57065609122760        2.73994479798173       -0.51878055138532
H            1.10379148733910        3.82807029084409        1.48021851205846
H           -0.85250084833800        2.65769490231677        0.98011859236730
H           -2.11777949073014        2.87721780344836       -0.64952506883151
H           -3.78693008938001        2.50776157448759       -0.65601356289295
