27
 energy: -50.969503777139 gnorm: 0.000849504605 xtb: 6.6.1 (8d0f1dd)
N           -2.75094046571980       -2.82959870735283       -0.21311708815102
C           -2.40948133139461       -1.72619474190881       -0.19319757126702
C           -2.01989606343291       -0.40026197603774       -0.13185215153175
C           -2.90032669967551        0.70910123062309       -0.16958042882068
N           -4.24549765268747        0.65678640429700       -0.19236412895244
N           -2.25860709444143        1.89530683005371       -0.11132023176256
C           -0.96395026095373        1.61570751290511       -0.08481704396590
N            0.01198356069464        2.50919124817095       -0.03591417766468
C            1.25509859712806        2.08739652293690        0.01991740831254
N            2.19256492403459        3.07964150278288        0.02271269533984
C            1.64575623953985        0.69867628337716        0.05586464764957
C            2.99583546928498        0.36839764604515        0.19382713567948
N            3.62913452175550       -0.70361695046285       -0.23977277520072
C            3.04976643515168       -1.81275471649041       -0.62879393143697
N            1.93080630276383       -2.32285018966132       -0.18694110587303
C            0.90648125892919       -1.67795454645224        0.32903770854608
N            0.09827376105945       -2.36782544261306        1.13047343914221
C            0.57944774797595       -0.28945389849714        0.01855330411628
C           -0.71609989103691        0.16545642060669       -0.08278983900190
H           -4.70531715426058       -0.21430492207132       -0.39075687717694
H           -4.73951297451599        1.51915553745009       -0.33880227396737
H            3.12493592081868        2.90149749895382       -0.30331080949578
H            1.81281210928821        3.99428694793359       -0.16266458004274
H            3.66837915753948        1.12314638831021        0.59067158804042
H            3.64032192824237       -2.45742695842853       -1.27146563535269
H           -0.81132484815994       -2.01188821748169        1.37726283645591
H            0.27315525317240       -3.35224584158843        1.25609629048162
