28
 energy: -46.669527050159 gnorm: 0.000546317221 xtb: 6.6.1 (8d0f1dd)
N            3.65197845511020       -2.63301830604455       -0.28288441212925
C            3.07046556789116       -1.64807077563221       -0.17625278566506
C            2.44428651021933       -0.38517720643406       -0.05576206695113
C            3.31261913345200        0.70423996824769       -0.16650963133785
C            3.04783968473955        2.04259815280097        0.00060869255105
C            1.81024302687432        2.62352092792032        0.31645086747335
C            0.57103926898230        2.05217024462326        0.36367007668004
C            0.14844098381574        0.71045716085996        0.12167059066202
C            1.03124507721950       -0.44190729523453        0.10246374593651
N            0.57454233934528       -1.69266181649348        0.19727738762061
C           -0.72365190995343       -1.94875600894490        0.22205999658829
C           -1.66399410923703       -0.95953351580469        0.07670268991657
C           -3.08503137885964       -0.94872627460601        0.01221078001711
N           -3.88363351351332       -2.04805775413244        0.01782310939297
C           -3.49418173144785        0.37606266348337       -0.14793483501546
C           -2.37768277346369        1.21718446752967       -0.16863716911350
N           -2.43375783630522        2.57666161623353       -0.32665788759243
C           -1.20694910894190        0.41805794411409        0.00161725574517
H            4.34357488699930        0.43785550985467       -0.37284371170278
H            3.88752159197186        2.71984681395081       -0.07824455405590
H            1.84535777314994        3.68482784602566        0.53631198850098
H           -0.23381322244852        2.71108796288576        0.66241608984852
H           -0.98067099020779       -2.99561306485564        0.33395634903263
H           -4.86904484724231       -1.91943134970832        0.17170196273185
H           -3.48620028505493       -2.91848546592175        0.32608343375182
H           -4.51292715565475        0.70368504885467       -0.25316114186327
H           -3.32378830539663        2.93288183985904       -0.64142338709692
H           -1.63427974174343        3.01332549576911       -0.75979365962602
