31
 energy: -59.454081957876 gnorm: 0.000898477857 xtb: 6.6.1 (8d0f1dd)
N            5.19688515392080        1.70603250367400        0.17031466386623
C            4.16819574909002        1.19511883374431        0.14441816269937
C            2.92239552229314        0.54131175249492        0.08712637382653
C            1.78128134972226        1.27146311797188        0.34609323867686
C            0.42293219315978        0.92679405366156        0.19453429131149
C           -0.52830162498575        1.99728970537400        0.08807520193880
N           -0.14097953799665        3.31164316742086        0.15037949425019
C           -1.89366167908381        1.72893966833835       -0.07151227543480
C           -2.80282616224935        2.79867022067900       -0.19295698764282
N           -3.49609585589288        3.70770120164527       -0.29987872716047
C           -2.34758774888373        0.40701469241208       -0.16150200973220
N           -3.58872989498778       -0.03633771392775       -0.35556031632711
C           -3.50831148613795       -1.37153211058534       -0.37801689764190
C           -2.21279855742109       -1.85313283122686       -0.15973079938857
C           -1.81889120629333       -3.18447725411602       -0.17229957822630
N           -1.47252415134668       -4.28413102473079       -0.15734370636820
C           -1.40074219390989       -0.68459719994502       -0.01391588478827
C           -0.05724699967748       -0.42981772594899        0.19887982125386
C            0.83825576227731       -1.51857626790202        0.56551442372620
N            0.39545649955563       -2.44221684515423        1.41629809635693
N            2.04058148590904       -1.70053513429638        0.07578019464745
C            2.93211412613258       -0.83851702435295       -0.33149340072657
N            3.95238925770007       -1.29251892147692       -1.06964557455580
H            1.97997652418683        2.30063573194445        0.62030335354027
H           -0.86264016390486        3.98554322117252       -0.05567297447045
H            0.78489015846230        3.58373598961448       -0.12599564579770
H           -4.38795723922786       -1.96517482206770       -0.55000933669338
H            0.94443194960428       -3.27466217670194        1.56111296362220
H           -0.57319463777499       -2.46176263626563        1.69089712986266
H            4.73318732695678       -0.69704514968781       -1.28843346951868
H            3.98074092629902       -2.26697441586224       -1.31622069840419
