32
 energy: -59.169035919623 gnorm: 0.000777368691 xtb: 6.6.1 (8d0f1dd)
N           -5.67719338753394       -0.38994711721645        0.31356225665019
C           -4.53101280088708       -0.35116813815116        0.22819140194263
C           -3.13462748515461       -0.25762974436089        0.10390580401416
C           -2.37012646548427       -1.37386114480772        0.41114746366444
C           -0.99578286138518       -1.57220407037801        0.29251499265451
C           -0.62249806104939       -2.88426230274830        0.66712695821390
N           -0.41761740318727       -3.95931929122963        1.01599937183758
C            0.03589785778619       -0.63429177840670       -0.00331812682618
C           -0.22719144155727        0.80734433909026        0.01993121375458
N           -1.37296787241829        1.40683195781234       -0.25547888068816
C           -2.60388523063049        0.98441242822521       -0.37978995076477
N           -3.44961522524177        1.85412391653286       -0.96731482966161
C            0.84753648467047        1.68085301600177        0.28223213248049
C            0.56803292199016        3.04089540926714        0.50021274763740
N            0.40296194215614        4.16024793769384        0.70367316331475
C            2.19719401695560        1.25932003063922        0.28901292549025
N            3.18780877758948        2.15146968393227        0.55088156205135
C            2.44829266589948       -0.06531089949875       -0.07032884758663
C            3.64836882043556       -0.76778254102563       -0.31361474377016
N            4.91465018219136       -0.25737414099795       -0.32204536586026
C            3.31495863850382       -2.12414303720346       -0.54781435113168
C            1.95465430097611       -2.27816398464900       -0.46225737407228
C            1.36342730120144       -1.01314956070982       -0.17239412122538
H           -2.93063403323061       -2.23907557018736        0.75087580238424
H           -3.09794143232596        2.76753266828002       -1.19839643590986
H           -4.44082674143394        1.68349387234834       -0.97156660779517
H            4.07282362526816        1.79824631300921        0.87300522978216
H            2.90905406282919        3.05758970903821        0.89626703809718
H            5.02493238185687        0.70452701690632       -0.60302239893761
H            5.63045503224159       -0.87904385933912       -0.66650272542942
H            4.02706494481740       -2.89571855730181       -0.77588051074629
H            1.42331490505160       -3.19284260286500       -0.63704526056436
