30
 energy: -54.937503347430 gnorm: 0.000607414111 xtb: 6.6.1 (8d0f1dd)
N           -3.88607540079905       -2.68031122391793        0.70821666652187
C           -3.00156449148416       -1.98370305382862        0.47923973821940
C           -1.88715468629229       -1.16314245718604        0.21917878622142
C           -0.61830248239643       -1.75317180153022        0.06207178883138
N           -0.52263150608894       -3.14876897173121        0.07740450623691
C            0.51662443185804       -0.95114983574408       -0.14841270128993
C            1.77821879086624       -1.56225055551595       -0.53569218356914
N            1.74710770334231       -2.65012448584277       -1.31799838702256
N            2.97150630241776       -1.19140423236435       -0.13269552547868
C            3.30596872076560       -0.00741296879607        0.35404300886261
N            4.39520750975577        0.05951798605477        1.13487533903421
N            2.76990382619591        1.16082882209951       -0.01135512743020
C            1.52711748624017        1.34534996179082       -0.33716911130949
C            0.40765042189607        0.48374386127345       -0.16884035105504
C           -0.87276917936843        1.05608616359028       -0.09102573795297
C           -1.34097611372276        2.38424700838727       -0.11376012183287
C           -0.61315981670691        3.56123353663251       -0.26283342000128
N           -0.03805924104014        4.55271815390411       -0.38371371437544
C           -2.74901628832378        2.34889501951720        0.05413024265056
C           -3.17365691070789        1.04359637037898        0.19094642248860
C           -2.04350177766221        0.21733348313060        0.11357965022508
H           -1.37498046703566       -3.59617219903803        0.38962663358067
H            0.29095050357176       -3.51730306809306        0.54899026016514
H            2.61824411220596       -3.06712357119068       -1.59769575871969
H            0.86894674091148       -3.05017114775668       -1.60279154876363
H            4.76403147348056        0.96576037207689        1.36363819579432
H            4.93728614233770       -0.76829375697424        1.30532815726079
H            1.31408179473438        2.35241659247600       -0.67867787573823
H           -3.37363254087542        3.22420539777335        0.06652736232523
H           -4.18352292577553        0.70946829502378        0.33746421052119
