30
 energy: -54.918570154529 gnorm: 0.000703601123 xtb: 6.6.1 (8d0f1dd)
N            5.60535127493561        0.75707083226649        0.24810336291457
C            4.45612996497950        0.70662008778026        0.22282434116330
C            3.05190634174041        0.63910390110746        0.19039100298947
C            2.37060739718224        1.81760941346023        0.54717773775292
N            1.13255818710742        2.15320809949050        0.40496783498863
C            0.05619777634892        1.41501281751806        0.09353733071011
C           -1.08000704451966        2.15389174507392       -0.20800441945123
C           -2.36557826453683        1.60508519786372       -0.28216397914802
N           -3.43919937698593        2.38561496251092       -0.58160619779505
C           -2.49242122998223        0.26144171444575        0.07489928135647
C           -3.58795181855098       -0.60090965147509        0.30156460671003
N           -4.91800248757469       -0.31731237898727        0.23386615914933
N           -3.17014407417444       -1.85061496260554        0.60871641958099
C           -1.84731548397525       -1.84085523364736        0.57955667715067
C           -1.32479489038029       -0.56047515259143        0.26063926994944
C           -0.02710592458102       -0.04886299897429        0.13492761224632
C            1.07863917691987       -0.90034248384043       -0.09580335735257
C            0.79350262879544       -2.24256044415045       -0.42477019197681
N            0.67665860118781       -3.34196752228543       -0.74447754085022
C            2.46695215627604       -0.59866578281474       -0.16698422122104
N            3.31085242791276       -1.58385146613153       -0.54269691747496
H            2.99429460751868        2.61673221786871        0.94173153309846
H           -0.95020743904074        3.21803512512737       -0.33629689152711
H           -4.27634612885384        1.93171198456592       -0.90630667337544
H           -3.25326344303448        3.30211519186213       -0.95523321818099
H           -5.50522798901828       -1.07086393541773        0.55971143830352
H           -5.21181471185844        0.60615020294850        0.51127650559693
H           -1.30709454408427       -2.72979400616187        0.84264501104233
H            4.30263010295332       -1.41356722706130       -0.55034716311227
H            2.96726199277103       -2.50729281204498       -0.74611372534016
