29
 energy: -50.406621110874 gnorm: 0.000604578864 xtb: 6.6.1 (8d0f1dd)
N            1.32077795162723        4.18383260732622       -0.35220455989540
C            0.71305486045221        3.21080687670690       -0.27088042535225
C           -0.06599355163282        2.04324693075227       -0.17407633830464
C           -1.44670684477143        2.19317341749526       -0.21121657969961
C           -2.23676070203218        1.07039591414986       -0.06808143947041
C           -3.62540191361767        0.84975458302687       -0.00205918446509
N           -3.91013470371357       -0.43222444900778        0.19669139377299
C           -2.73687822983813       -1.10179600926044        0.25130170620395
N           -2.74942877545932       -2.45182576184255        0.46895679878915
C           -1.63187770309537       -0.23328707016404        0.06644055807276
C           -0.24502064572035       -0.42934939408565       -0.02451936080733
C            0.25557474769532       -1.72431421202552       -0.18438901916183
C            1.57067967927616       -2.19842854764567       -0.23735182567463
N            1.74027040356347       -3.52416587620217       -0.50090696720114
N            2.71878726115430       -1.58108688358157        0.02548222898689
C            2.87929481891673       -0.28569601369258        0.23494388608868
N            4.14531700319900        0.05036020054305        0.58200850330092
C            1.96063884624536        0.77624270151306        0.09707141174922
C            0.58049624784165        0.77150331799325       -0.04212246324859
H           -1.87865413252231        3.17739537136505       -0.32455326689236
H           -4.40998468561938        1.58011127426822       -0.07659386432294
H           -1.99214350991299       -2.82861754280712        1.01915215051947
H           -3.66596519213062       -2.79121933286555        0.72460916176449
H           -0.49491800016841       -2.48370085507443       -0.35773663308289
H            2.68354760896400       -3.84237222199329       -0.63843280837426
H            0.98964050666295       -4.06131315769999       -0.89537470532205
H            4.42994184939266        1.01109849492519        0.63547085948958
H            4.84024606334481       -0.67459078928221        0.59061495671799
H            2.41688301979915        1.75896906916446        0.14149189931991
