31
 energy: -54.634209074942 gnorm: 0.000979075153 xtb: 6.6.1 (8d0f1dd)
N           -4.66656835999020        2.15478752505923        0.47247429077955
C           -3.77235706959213        1.44954118685741        0.32162190580331
C           -2.70500324537188        0.54053686912301        0.14280020642240
C           -1.45632439941669        1.08477518570156       -0.03647283588165
C           -0.17574593195551        0.50757061253640       -0.10109307958724
C            0.17708768278703       -0.89501049835336       -0.07134661022013
C           -0.78748674436317       -1.91773912855144       -0.36135829267698
N           -0.32696765292905       -3.09470891607115       -0.84001383216074
C           -2.17902187264621       -1.87041738622357       -0.20025239798082
C           -3.05485647520864       -0.84587542588310        0.11317161061008
N           -4.35412727615615       -1.15761350677338        0.32904528177072
C            1.53788309028254       -1.24286082488647        0.13838945511129
N            1.92062199796130       -2.58122262349738        0.35326130949995
C            2.56054509076209       -0.28191295583195        0.12441422915396
C            3.89333879376678       -0.67444004404489        0.34937450106356
N            4.97561761033569       -1.00972858090482        0.54422904844910
C            2.26360200480100        1.06624241997863       -0.08918925252947
C            2.97900989848966        2.25803032576485       -0.16507502100777
C            2.00832733949329        3.25314197049696       -0.27160226919273
N            0.75145687032542        2.78261549434979       -0.25894333564256
C            0.86312053702166        1.44980368945976       -0.16322625745643
H           -1.40860329866948        2.16872452575634       -0.06726903587556
H           -0.97272153265689       -3.80955246491040       -1.12291861750829
H            0.65983936108401       -3.21594130687915       -1.00798633727853
H           -2.66375591688474       -2.83105094602664       -0.34896214102050
H           -4.67254753491443       -2.10675576564531        0.25653774000527
H           -5.02935988244303       -0.42814370089597        0.48181025724453
H            2.90168662788314       -2.65769729855350        0.59526850202934
H            1.34130896504467       -3.07439571432997        1.01936906703281
H            4.04322700448432        2.38689825044841       -0.14040333832682
H            2.17535785787207        4.31258935762957       -0.35625404953096
