27
 energy: -51.782388624749 gnorm: 0.000520680779 xtb: 6.6.1 (8d0f1dd)
N           -4.33263604576787       -2.58979132448592       -0.17936680918530
C           -3.34442525332173       -2.01293252946211       -0.11416011936744
C           -2.10382106812694       -1.34245879870435       -0.02433714493739
C           -0.94422830696344       -2.05766382256638        0.20578110896506
C            0.32203511167956       -1.44119288869433        0.27710235217113
C            1.44554013953067       -2.29977856658672        0.43255155278106
N            2.68252463954281       -2.11136978115538        0.10158671661744
C            3.19054914987522       -0.93251536252988       -0.30332455951997
N            4.25071801342389       -0.99978695937835       -1.11475234272907
N            2.85433074669332        0.25008498979116        0.17236622170299
C            1.67601212259204        0.62762334583585        0.60545124638228
N            1.63844309873773        1.68595460376733        1.41210842682164
C            0.41699523042758       -0.01373174794119        0.23342190573041
C           -0.73693311397418        0.71663186631084       -0.01635648556593
C           -1.04860209286921        2.09546766692558       -0.20782074436780
C           -0.18612348901276        3.18460879836043       -0.22273376371652
N            0.54086514335803        4.07891001398594       -0.20963150088223
C           -2.42736905172102        2.12988341561253       -0.45796783515029
N           -3.00041168484506        0.92531853881289       -0.41740326716336
C           -2.02282913209552        0.05216731224718       -0.17428308875290
H           -0.99777858577806       -3.13291709994693        0.29533899296673
H            1.23709276922737       -3.31128620875511        0.77074061245486
H            4.60828647082198       -1.89948844213514       -1.38312521650829
H            4.73188720856404       -0.15728225357615       -1.37561246016054
H            0.76664836293524        2.14345879927871        1.62310684412731
H            2.49200616671979        2.19536360784585        1.57653736541861
H           -3.01492099645274        3.00602042564307       -0.66489881433160
