28
 energy: -51.476837504748 gnorm: 0.000900255889 xtb: 6.6.1 (8d0f1dd)
N            4.73863543250503       -1.95631094558823        0.71047325500219
C            3.72656764686284       -1.44669262161259        0.51852993486828
C            2.53369684576841       -0.75126539927965        0.29973341539709
C            1.24908204094693       -1.27497226730518        0.23203730996462
C            0.34179918571531       -0.20625665476182        0.05247924002884
C            1.12791616308811        1.01241551526419       -0.00863880641337
C            0.45742409615727        2.20929054499817       -0.28468150224331
N            1.09405326691069        3.37014730280802       -0.57169312985975
N           -0.87032683130789        2.27443862516369       -0.20327742504963
C           -1.61788962310030        1.19566600288229       -0.00558460255809
C           -2.95479304818106        1.48785242994395        0.33749928456982
C           -4.00456430866161        0.62855174986012        0.59017403652427
N           -4.15902420093120       -0.64172725265617        0.27067365558282
C           -3.23911982884179       -1.43805832324998       -0.21896095449989
C           -1.84790468433350       -1.31014534927920       -0.27473251023024
C           -1.21530879371189       -2.49777051253668       -0.70526812160333
N           -0.78928195769995       -3.48714359648578       -1.10397666259431
C           -1.04887248770641       -0.15212641839446       -0.04713986527657
C            2.47627126500439        0.67059225471189        0.15365054572909
N            3.56084758065660        1.49687146447920        0.15020770938701
H            1.00629700511960       -2.31350167074654        0.34120891410286
H            0.50331594027953        4.13076235980509       -0.86781019914720
H            2.02643773754502        3.33135504869950       -0.94635460262576
H           -3.13156566583191        2.54368187391666        0.49514520809070
H           -4.89396019952349        1.05590773965049        1.04328069322741
H           -3.63918390931074       -2.39018333180459       -0.55847249818410
H            4.43386104958478        1.07217918693138        0.42687526875648
H            3.42632834969805        2.44450810298543        0.46544524745423
