27
 energy: -46.956224607750 gnorm: 0.000472153451 xtb: 6.6.1 (8d0f1dd)
N            2.86482565960066       -2.89799634298213        0.02017171639873
C            2.39565257898422       -1.84751665363009        0.01742462426821
C            1.93216631913293       -0.51450363978527        0.01277643520420
C            2.95569222170330        0.48665968272606       -0.01771040755214
N            4.23377135772912        0.05644158185648       -0.08317211079453
N            2.84916343393605        1.80120791059852        0.01564546161419
C            1.72711233907738        2.50856497330825        0.05217372610074
C            0.40263650319858        2.15256603350837        0.03933839691597
C           -0.20220306816066        0.87270993357210        0.01541277632883
C            0.53077954754813       -0.38608781232444        0.02539346490787
N           -0.08752200144249       -1.57975040122539        0.03998234100020
C           -1.40032633489646       -1.66569905520594        0.02912045508462
C           -2.21342581394518       -0.55047038531483       -0.00267351791767
C           -3.61645966952520       -0.35270083839281       -0.03334814808209
N           -4.56357689484551       -1.31895576549300        0.00004478513152
C           -3.84784693187608        1.04079706193334       -0.05112383589916
C           -2.64171024765421        1.70698352227324       -0.03431120209943
C           -1.59018652612644        0.75364913442296       -0.00585693336609
H            4.95991600648387        0.75069351425082       -0.08485538144290
H            4.45744119921488       -0.92346959709964       -0.08688559252112
H            1.93632613947716        3.57500271924665        0.08885966193591
H           -0.29601159914980        2.97830651605975        0.05624757014914
H           -1.79232468203168       -2.67672724531385        0.04535867005478
H           -4.29077638130398       -2.27520654654318       -0.14449324396474
H           -5.52001222526811       -1.07174860667033       -0.18564582521994
H           -4.82071463915845        1.49749229045913       -0.07563169131580
H           -2.52883876970203        2.77528523366528       -0.04588922711931
