26
 energy: -42.453952914111 gnorm: 0.000781968723 xtb: 6.6.1 (8d0f1dd)
N            4.12703537299361        1.22658231582023        0.03425835901286
C            3.00019518673205        0.45582236896038       -0.01875817293596
C            2.95167729540342       -0.95433250000609       -0.00816404673222
C            1.60402961978817       -1.27832140833297       -0.00137146967366
C            0.87967143947207       -2.47561080545208        0.00657215435723
C           -0.48301486237197       -2.41623030229348        0.00754692740712
C           -1.22146750617557       -1.20064339383546        0.00203814317894
C           -2.61259073636423       -1.34860232772952        0.00276785625597
C           -3.62376556022431       -0.40550144509884       -0.00572449180803
C           -3.48198442610815        0.97667832656327       -0.01323883404252
N           -2.41299964897967        1.73272233568758       -0.00511506785087
C           -1.12775232344544        1.36856060545492        0.00377911655087
N           -0.30181155617371        2.40818497654993        0.01762186022286
C           -0.50389626021566        0.05527698234822       -0.00266777696052
C            0.88707978137574       -0.01754525201671       -0.00618501614119
N            1.78326564828027        1.01088694124139       -0.01954877361670
H            4.98166266626970        0.79766566429991       -0.27883459766218
H            4.00775131629524        2.19583935911336       -0.21063868292462
H            3.79412328933250       -1.61803943651240       -0.00491677034422
H            1.39533548938673       -3.42533831590362        0.01173933865950
H           -1.04874913314745       -3.33752644208287        0.01250680294352
H           -2.95290801768782       -2.37862743391068        0.00839131967281
H           -4.63883071011216       -0.78058730911139       -0.00771960018571
H           -4.39927319601471        1.56126099197844       -0.02508333871739
H            0.72162701720976        2.20121026407845        0.01795856149340
H           -0.71267502671842        3.32697760059005        0.02717407154073
