33
 energy: -62.901680053112 gnorm: 0.000730035268 xtb: 6.6.1 (8d0f1dd)
N            5.70827742433922        2.41225533608176        0.71388414623649
C            4.72144840674206        1.85219174561414        0.52630301682181
C            3.55493927010696        1.11622732623027        0.30783446167255
C            2.25650256195345        1.59991891879036        0.20479559288379
C            1.39261232201488        0.50043193891317        0.02225764930258
C            2.19895071176791       -0.69283145692885       -0.00785769451831
C            1.55900893410395       -1.90213811570439       -0.32360787742782
N            2.22418687475129       -3.05961142552850       -0.55736465873681
N            0.23431508457703       -1.98003462399071       -0.35345761190420
C           -0.54637236788863       -0.91335453306494       -0.19124128123577
C           -1.90497608056948       -1.22308010768891        0.01316202417001
C           -2.17105577775369       -2.60902246870040        0.08544796230637
N           -2.45418569829803       -3.72159822573847        0.14371689021373
C           -3.01943576623983       -0.37004653817251        0.23281310730450
N           -4.17546367576896       -0.96117614550477        0.60735857129850
C           -3.03297592950774        1.02468672907874        0.05249264195823
C           -4.26006982823389        1.68173705904364        0.22874106192370
N           -5.26345477116511        2.23083852492551        0.36622359088629
C           -1.93248939900314        1.84808452857047       -0.34937165079285
N           -2.22089155482948        3.10069927764597       -0.76766029729502
N           -0.65036115069182        1.58619332964665       -0.30474559002073
C            0.00562399353747        0.44606165899889       -0.15107709088337
C            3.53484491055804       -0.31122279425991        0.18828995455138
N            4.64084082349548       -1.10728531497829        0.21951115001270
H            1.95614974393557        2.62791348480254        0.26455712045340
H            3.17869472516529       -3.01901248176226       -0.86994868760407
H            1.65543210824880       -3.82475988994067       -0.88440215200937
H           -4.22811758611502       -1.96296139357356        0.68149095842115
H           -5.01066144291926       -0.41160555848510        0.71758615858109
H           -3.15774633566342        3.46231041606716       -0.72703837572390
H           -1.45116407355188        3.71629295546604       -0.96227520849525
H            5.49756392279441       -0.65670188997359        0.50551811894020
H            4.52479639971706       -2.05500251306757        0.54161902590245
