30
 energy: -54.941991898623 gnorm: 0.000595916965 xtb: 6.6.1 (8d0f1dd)
N           -5.25462901022788        1.38631556558178       -0.01537625070231
C           -4.18379741842473        0.96139580251078       -0.01223708229640
C           -2.86501488352234        0.48505700636503       -0.00751476400594
C           -2.68899179836591       -0.89520801061143       -0.00246436697598
C           -1.52456840211974       -1.64422126106107        0.00243283042101
C           -1.75647098289316       -3.03630107517620        0.00603261236343
N           -1.99685524110383       -4.16083174460987        0.00928580942534
C           -0.15706095933070       -1.19679763083100        0.00432567830249
C            0.83997430527273       -2.18135056377828        0.00988035671065
C            2.20304923174103       -1.91939901276090        0.01313088375159
C            2.59720818299483       -0.60064379560236        0.01065620726828
C            3.84744212120566        0.11301101237999        0.01252302234801
N            5.06945505455714       -0.42820465118225        0.01705718778795
N            3.67054510736524        1.44245709859358        0.00812092930274
C            2.34257063039699        1.65233919111406        0.00329525834705
N            1.75105085876616        2.83801035988601       -0.00199760010112
C            1.60403656627336        0.41982722972589        0.00465026736915
C            0.23236270644734        0.19440716791173        0.00112922649014
N           -0.52268559257284        1.32208900882456       -0.00509651916870
C           -1.82228549855753        1.47427711620003       -0.00908544099385
N           -2.23215269858139        2.76488826022632       -0.01526439488546
H           -3.60916851578474       -1.47164328075025       -0.00252836235860
H            0.52070386694052       -3.21350889030729        0.01188996673908
H            2.90893882037982       -2.73703128113949        0.01747520269786
H            5.86956673421400        0.17916544880667        0.02022514588992
H            5.18805740768696       -1.42446722090185        0.02390683916910
H            2.28332644478641        3.68996218500011       -0.00277215329776
H            0.73289526691696        2.77731619644656       -0.00499470680052
H           -3.21246550739585        2.98793449339985       -0.01941558610881
H           -1.55173983236459        3.50297810333931       -0.01765074038832
