31
 energy: -58.661538433810 gnorm: 0.000757569642 xtb: 6.6.1 (8d0f1dd)
N           -5.20946761214104       -2.03699884756078        0.00177636823523
C           -4.15621363489972       -1.57243968432037       -0.01048408376741
C           -2.87244358149943       -1.00182302251520       -0.02281496968367
C           -1.81149924294939       -1.92180739127055       -0.08739105005722
N           -0.52094227702744       -1.79045995588532       -0.08970572891775
C            0.19499952870187       -0.63448513191965       -0.05157653097577
C           -0.25704672523373        0.74752970470829       -0.04602047514081
N            0.60464160082363        1.76197611839062       -0.08492484051332
C            1.92838405059733        1.60624104059421       -0.08296255086685
N            2.65146241815462        2.75839091346776       -0.12404151945416
C            2.48285447088999        0.33052643508420        0.00814165772380
C            3.76795611251395       -0.27159643220268        0.09262461014178
N            4.96567894898598        0.35235384567124        0.14226612208715
N            3.70132995623797       -1.61888683435065        0.08676458804393
C            2.40529117939218       -1.94329634765394        0.02083443568345
N            1.91461595852312       -3.17657804231597        0.00152760893811
C            1.56960496424211       -0.77087291971541       -0.01415234740879
C           -1.61270837317177        1.17530380432817       -0.00120098529676
C           -1.77219320441705        2.57641818117057        0.02690639378054
N           -1.97122495493193        3.70956078530174        0.04906627887991
C           -2.79936232822074        0.41668086317079        0.02656505773168
N           -3.96801643389311        1.08675971897956        0.09719821030669
H           -2.12668927711883       -2.96382199051016       -0.13455446434292
H            3.57933353198024        2.73263756451429       -0.51159037449944
H            2.10313807764653        3.58403000740274       -0.31053337509532
H            5.75429077878317       -0.24320831270471        0.33887114840674
H            5.00292648285938        1.29123975402429        0.50159502393842
H            0.90234141215040       -3.23605723909688       -0.04675471071678
H            2.51992156212545       -3.97796072578100        0.01623625500669
H           -3.97288230018153        2.09269795544585        0.12300081066893
H           -4.83935643042232        0.58377812484893        0.10878158876409
