25
 energy: -43.524111760412 gnorm: 0.000526023809 xtb: 6.6.1 (8d0f1dd)
N            3.04342830741964       -2.78099006356864       -0.48921542252155
C            2.73801211659296       -1.68235356958021       -0.32402714971949
C            2.39286218020033       -0.35011608729447       -0.12547087137233
C            3.31847142981520        0.71755382149998        0.02369296125804
N            2.74045305546630        1.88617518486057        0.20810359977283
C            1.40599124848754        1.65334032812021        0.18846062161791
C            0.37556716156974        2.55477420546074        0.35926640026663
C           -0.93004411409533        2.09811872874159        0.25338248799052
C           -1.24146783951755        0.75371237154494        0.05306784324809
C           -2.62127412392324        0.38855185851353       -0.19070325781590
N           -3.41064712447814        1.27325421881957       -0.82228776349393
N           -3.23271450341302       -0.68535419636349        0.25140772074600
C           -2.76097149920708       -1.86533766797625        0.54835159997458
C           -1.51416483490624       -2.38228037063246        0.19467303228488
C           -0.39996856969038       -1.63372533430323       -0.11902804588194
C           -0.20343367886890       -0.23977308164500       -0.03135654356839
C            1.12148463274362        0.24846458395830       -0.02879089313854
H            4.38988871108599        0.62796766859625       -0.00782134479591
H            0.58638235101116        3.59650901538402        0.54239027280999
H           -1.73729161428647        2.80866695227400        0.36273685743280
H           -3.04058997172796        2.12999883456257       -1.19263418954697
H           -4.37623969881656        1.03602015716196       -0.97488558739496
H           -3.47875940636169       -2.51705173862199        1.03441156017701
H           -1.39690198668381       -3.45614270778490        0.23425090118118
H            0.49984895588127       -2.19906304392093       -0.32757722250746
