26
 energy: -47.252119621018 gnorm: 0.000708877712 xtb: 6.6.1 (8d0f1dd)
N           -5.42393911448712       -1.49485429616632       -0.74611079458797
C           -4.37038989733700       -1.06867663277281       -0.57563797841198
C           -3.09095790787878       -0.54262392868551       -0.36316422084375
C           -2.80106405993908        0.82767087228657       -0.16802055454671
C           -1.42654552814253        0.94524582395059       -0.00576812722851
C           -0.56689111030607        2.02604100583096        0.29631588256885
N           -1.03278897596780        3.25746711797384        0.55222989246218
N            0.75526929466288        1.88264440762157        0.31986381473156
C            1.32313180555942        0.70181588485757        0.12057076884739
N            2.61306154875119        0.74535127569010       -0.13337608388666
C            3.49981972724902       -0.22484365158455       -0.19381983976386
N            4.62698954925054        0.04869189161079       -0.87616382811533
N            3.49975308300851       -1.40351937300383        0.44987965146606
C            2.41194981903815       -2.06254939775798        0.75012327078828
C            1.07985992879580       -1.78553616014835        0.43674706245642
C            0.52740445337046       -0.55361059166260        0.09827673871338
C           -0.85176591670428       -0.37506784763927       -0.08515653453679
C           -1.90603385354082       -1.27951449419427       -0.29806326639802
H           -3.53444842017349        1.61350882717143       -0.15278061982891
H           -0.36797453900708        3.99035496444485        0.73028371024966
H           -2.01165747698897        3.46533041825580        0.47822409175798
H            5.40091566685475       -0.58790242993754       -0.81078579930052
H            4.75473400879954        0.97339300489418       -1.24651809856890
H            2.60886628218449       -2.99751213200253        1.26732668806055
H            0.37712406855108       -2.59469927848343        0.59126152146225
H           -1.82863760400335       -2.34349550324797       -0.42268846464784
