26
 energy: -48.022916268900 gnorm: 0.000292073832 xtb: 6.6.1 (8d0f1dd)
N            5.12884612946874        0.32293941412812        0.34791551182982
C            3.98444381167594        0.39655078412657        0.28097771683477
C            2.57900035428092        0.47006186813032        0.20185103879564
C            1.98396790083840        1.67193299188302        0.60987232376779
N            0.80435058134806        2.11564415041300        0.31498048958397
C           -0.28709197480217        1.51980568377496       -0.11031513028202
N           -1.21672529913229        2.32201974190371       -0.61457069233987
C           -2.47365822701411        1.92623676661282       -0.68128987573815
C           -2.89133264598578        0.71835409473721       -0.14792585263977
C           -4.15246435771436        0.11540749546943        0.02499179947747
C           -3.95124099300973       -1.16740567839642        0.52408983001302
C           -2.58576726187339       -1.41486309771406        0.64262218084444
C           -1.88959914912611       -0.25595776099730        0.23665583764368
C           -0.53917720070116        0.06710332687661        0.07979801316833
C            0.48368163746892       -0.88582307739660       -0.09332567068199
C            0.07540761361007       -2.22520593294499       -0.28838423810688
N           -0.17543747945538       -3.33128105203386       -0.47403209666169
C            1.88821621867590       -0.69461311369392       -0.22207563123047
N            2.63255226619449       -1.72910898148595       -0.66360588219417
H            2.61143549341735        2.38056105438113        1.14206466968121
H           -3.16414658060436        2.63117462656268       -1.12686997565789
H           -5.09842136679733        0.57414640293317       -0.19492581248322
H           -4.72723252414070       -1.86632514507471        0.77673871580949
H           -2.14754540967381       -2.31947784804745        1.01923023274487
H            2.20620262792274       -2.61688527299081       -0.87177978047468
H            3.63663104832791       -1.65589914265507       -0.67059891380378
