29
 energy: -51.197737597151 gnorm: 0.000868580298 xtb: 6.6.1 (8d0f1dd)
N           -3.84639022225982       -1.36406783929403       -1.26238471382702
C           -3.13202405406193       -0.65165390696132       -0.71132525377437
C           -2.30355467594824        0.35747860871167       -0.16771887778515
C           -2.95156926696980        1.59315589513135       -0.09103531134770
C           -2.45773889306074        2.81553065632768        0.30484458717567
C           -1.12223842314238        3.12319002417423        0.58777629447459
C           -0.01062706185670        2.33643131027056        0.45920504647241
C            0.13281361177243        0.95400835344894        0.14257448319252
C           -0.94946796859351        0.00026980562105        0.11324877069689
C           -0.64622967295232       -1.37284532397365        0.27707362204620
C           -1.64690458599950       -2.31480007983639        0.59427997177051
N           -2.35694066044747       -3.14077291640939        0.95921361635362
C            0.66657171631020       -1.86922941801485        0.24474381184701
C            1.68476034592633       -0.98566479788280        0.01885019911305
C            3.10153018040248       -1.10262410141710       -0.13298464395285
N            3.81708825587959       -2.23795403275870       -0.15935404106887
N            3.67296285039900        0.09389881435619       -0.31053892922651
C            2.69754562062880        1.02029755854656       -0.26142439832024
N            3.01449468659302        2.32775825636139       -0.41927250219774
C            1.41615481766179        0.43617267029950       -0.03609411288178
H           -4.00290225517971        1.56148805330844       -0.35493720632520
H           -3.16822568434134        3.62656031386912        0.38387511572686
H           -0.94044882747773        4.14033798359969        0.91476120365201
H            0.92479448095317        2.80992118943453        0.72712386573369
H            0.83069764137299       -2.92899509825640        0.37831860289841
H            4.81848454682715       -2.17167577657978       -0.20003824897791
H            3.38657988368154       -3.11386197375036        0.07409820307744
H            3.96319266671444        2.49208263459790       -0.71954809304172
H            2.31187455606409        2.94723517657807       -0.78990147080233
