28
 energy: -49.910019722671 gnorm: 0.000743839190 xtb: 6.6.1 (8d0f1dd)
N           -4.23960516451602       -1.39692248898579        0.68124468316337
C           -3.06138175363740       -0.90023843184627        0.22597203005377
C           -2.03393398152383       -1.79877795124987       -0.06916172486762
C           -0.69488955831062       -1.51216370841308       -0.31702625670878
N            0.13258539287846       -2.51506390337435       -0.63409178946516
C           -0.06110164534149       -0.22243247887211       -0.14063069944418
C           -0.71239384278243        1.04508568365159       -0.02386868715116
C            0.06515320144866        2.17796869697021        0.27919598175130
N            1.37051891739801        2.22014707573678        0.43726550369020
C            2.01251940939182        1.07597134332083        0.25075882447189
N            3.32927041774823        0.83964665707678        0.29609816217716
C            3.42391412312038       -0.47279559929880        0.04705934771885
N            4.61953448651380       -1.11361397031550        0.05915619550756
N            2.26913020628645       -1.13533878476700       -0.17181236338821
C            1.32726851609716       -0.17230139490543       -0.04711431779639
C           -2.11951079260189        1.22733842127554       -0.28233182683130
N           -2.51527607531120        2.41454213418835       -0.78271229225942
N           -3.10448429566051        0.40310671121725       -0.02582710588788
H           -4.95865019550503       -0.74404915222420        0.93549107698331
H           -4.31312753367118       -2.35133250019587        0.97933331883574
H           -2.30219136508608       -2.84892935857626       -0.05182444518717
H            1.14452018135371       -2.31104450338316       -0.57381854250941
H           -0.20822356279653       -3.46146815263165       -0.62789459212736
H           -0.42804641962159        3.12650607162198        0.45985470369687
H            4.65999045774792       -2.00513121871284       -0.40391276894312
H            5.42634871816621       -0.51744843581106       -0.01052064596767
H           -3.49768018286635        2.56613577616143       -0.92942477425976
H           -1.85193134351848        3.13020826754262       -1.01413501765583
