26
 energy: -43.225994785369 gnorm: 0.000496041542 xtb: 6.6.1 (8d0f1dd)
N           -2.79769274141353        3.41978761539548        0.00159990718737
C           -2.01744001644680        2.57825554889255        0.00457073739388
C           -1.06190229558030        1.54043462728740        0.00482947497901
C            0.29845565640563        1.84416314518149        0.00266794010006
C            1.29721577603290        0.86814546766316        0.00035493810909
C            2.62289015191352        1.34710111026083       -0.00373463470197
N            3.80602801971603        0.78115247577221       -0.00530060939045
C            4.06938175198975       -0.51266784748740       -0.00142883411497
C            3.21383151614954       -1.60786869644043        0.00331326588566
C            1.82803611362949       -1.60951996891564        0.00381272178956
C            0.91243894388141       -0.55276876388934        0.00046150490001
C           -0.45952040221382       -0.84994288923808       -0.00164262765304
C           -1.15858796015820       -2.05910182162901       -0.01135953064124
C           -2.53868043284586       -1.77904822991112       -0.01298006856247
N           -3.53013062373794       -2.71372001944294        0.03663353307424
C           -2.72761690362594       -0.38730675734928       -0.00246033089645
C           -1.47144074035588        0.20699998433353        0.00292996500859
H            0.59108586333381        2.88471055883070        0.00270833683644
H            2.70418469057239        2.43309596762391       -0.00630094471545
H            5.13561664715591       -0.72094195359141       -0.00206954829310
H            3.69245187834806       -2.57907270411954        0.00672594483498
H            1.37361149947463       -2.59192907398602        0.00797674587131
H           -0.74821758391493       -3.05200198003532       -0.01737495396497
H           -4.46374135792932       -2.41260997844896       -0.18558508923282
H           -3.29713877963276       -3.66050304386384       -0.21016468179076
H           -3.67170303814778        0.12428510700712        0.00009254088749
