31
 energy: -59.461320625477 gnorm: 0.000841833580 xtb: 6.6.1 (8d0f1dd)
N            5.78156334212189        0.07042081843120        0.74049448915628
C            4.68616336395760        0.33275956692451        0.50992844379647
C            3.33993231567898        0.59898724565946        0.24740892111417
C            2.78704051938452        1.77933951828075       -0.22179868607640
C            1.38832095376067        1.61236454734470       -0.29260638448305
C            0.40270866885216        2.50955730905030       -0.64748489287193
C           -0.93163181883163        2.13719743404355       -0.50640060573873
C           -1.95805542828703        3.07457641499622       -0.73559939713775
N           -2.78026685234612        3.84964047090496       -0.93692390649680
C           -1.29423801424912        0.84517445264226       -0.05302025270044
N           -2.52793712877134        0.69632597962576        0.38164622890964
C           -3.18709933186342       -0.39401288162318        0.71163650851423
N           -4.20743010170650       -0.22936046659785        1.57363045958568
N           -3.06115306251243       -1.61418518621216        0.18574174403319
C           -1.95492666713932       -2.08629898168782       -0.34406455200049
N           -2.09521324267449       -3.27248327005238       -0.96618527964883
C           -0.62479601950788       -1.54041065143648       -0.24329039829554
C            0.38179714449785       -2.43243848457724       -0.62999743663063
N            1.17730419796259       -3.20487988152248       -0.94819407442354
C           -0.26101282454017       -0.19799335403860        0.00214989949148
C            1.06753680204604        0.25067687268619        0.08332837883737
C            2.29520345961592       -0.36450123534287        0.45480307461955
N            2.52732076501345       -1.52985730870866        1.07994729763514
H            3.32700260192161        2.67064372380463       -0.48157217447951
H            0.64992415196024        3.51277838248740       -0.96220568417908
H           -4.46494820091153        0.70851109629793        1.82760946290984
H           -4.86535788611335       -0.97932180303280        1.69066433473410
H           -1.30998804886340       -3.75824360441762       -1.36293433379330
H           -3.01366875852111       -3.67776161079573       -1.00378388229333
H            1.85001959224305       -2.27247554926714        1.07925070138539
H            3.49017538412205       -1.78743058466707        1.23347043222586
