28
 energy: -51.477425579637 gnorm: 0.000412531033 xtb: 6.6.1 (8d0f1dd)
N            5.53177186250551        1.59976016476220       -0.02248680213605
C            4.50251212712231        1.08819112489284       -0.01559173299323
C            3.25863235822953        0.42328319577568       -0.00674764791501
C            2.12624764055232        1.22287467823648       -0.00776215759032
C            0.77097889876637        0.88552561638327       -0.00130492343835
C           -0.15126596696624        1.95186417680402       -0.00666863491366
N           -1.46152362119180        1.84525671123959       -0.00148286772852
C           -1.97195531924720        0.62753617709239        0.01047026065917
C           -3.31895718297230        0.23846567631274        0.02053099793538
C           -4.45739080260917        1.04013763457589        0.02594533625740
N           -5.44195457293975        1.63567390769971        0.03587396126703
C           -3.34673019086636       -1.18552902487817        0.03496771256134
N           -4.47347338565961       -1.92400371241202        0.02485489930267
C           -2.02823685467392       -1.67761710305084        0.03332892848361
C           -1.15424724730773       -0.59785399067553        0.01846548799847
C            0.24834316397662       -0.47755676196295        0.01208707521278
C            1.02420065858658       -1.64370855005919        0.02065939460978
N            2.31434426925082       -1.88030441019572        0.01486261018525
C            3.31521541957477       -1.00925072320687        0.00086532276117
N            4.52683901505911       -1.59043738177591       -0.00522042208608
H            2.32989094038057        2.28917260451827       -0.01553760906985
H            0.22352672257977        2.96786457573705       -0.01615058313308
H           -5.36486589484562       -1.46440668571681        0.09306455759270
H           -4.42892825490920       -2.92236198468186        0.11934659643825
H           -1.77781238274149       -2.72239264515964        0.04205193890105
H            0.45525916980794       -2.56914058316930        0.03387681239168
H            4.56521199817998       -2.59551420962962        0.00047748329646
H            5.37331309875841       -1.04652576655551       -0.01497069784986
