27
 energy: -47.762204078165 gnorm: 0.000710347547 xtb: 6.6.1 (8d0f1dd)
N           -5.49268125461408       -0.00491549595919       -0.00873022695243
C           -4.36286736017470       -0.21689292299800       -0.00400363613690
C           -2.97962807971530       -0.41930705307442       -0.00413385575485
C           -2.30692366210367       -1.63777505852211       -0.00260523225477
C           -0.92026858837739       -1.37982829801585       -0.00167609798959
C            0.18510833574878       -2.19403482406831        0.00018256021797
C            1.45705256541002       -1.60323518921388        0.00071812439354
C            2.55475023800098       -2.49052154110103        0.00239833509596
N            3.41856002217450       -3.24750447808666        0.00460735289681
C            1.67740833040090       -0.20425447984968       -0.00048056112427
C            3.01974600319287        0.23846218812760        0.00034465109721
C            3.53092129383185        1.51732591192248       -0.00048613283237
C            2.84010106800681        2.72599723378285       -0.00241731764767
C            1.45753622225395        2.88708971111229       -0.00391809558358
N            0.47467641593874        2.02391228976956       -0.00393010562148
C            0.51444984264473        0.67443912516333       -0.00247357467445
C           -0.73451970979218        0.05607154065242       -0.00298663646225
C           -2.02291338079099        0.64610093035492       -0.00469276502775
N           -2.25932492589337        1.95858509940978       -0.00613804341239
H           -2.76895091253393       -2.60734529327007       -0.00180938914535
H            0.10103987113148       -3.27124268414938        0.00123254302829
H            3.75443947988872       -0.55804932672995        0.00189391197141
H            4.61153865802362        1.59011952174655        0.00047201237211
H            3.42934040088462        3.63216784927916       -0.00281177389256
H            1.09936872570024        3.91563270651292       -0.00536700446067
H           -1.43179068243072        2.54525650862328       -0.00615212191915
H           -3.19579758230647        2.32428420698135       -0.00730777868082
