33
 energy: -58.091918861288 gnorm: 0.000556553847 xtb: 6.6.1 (8d0f1dd)
N           -0.56548700655502        4.55210875033289        0.74934454161166
C           -0.20544858189685        3.47538170213728        0.55958296932086
C            0.27713903648048        2.17746024027367        0.32958828366776
C            1.65990297439658        1.99020224616084        0.34309201683955
C            2.15982491483101        0.75025994993972        0.03679066671066
C            3.50114707611442        0.28688449538148       -0.11919375548674
N            4.61247678891045        1.04957058425454        0.01491687972603
C            3.45140241624913       -1.04968001385558       -0.50442877745832
C            2.11845366413372       -1.47188242693448       -0.56553450544989
N            1.74990869235536       -2.65731106722314       -1.09822448711115
C            1.27276342273147       -0.36953040988308       -0.18257580037380
C           -0.10142719914669       -0.23782182267641       -0.00101241441292
C           -0.92817899910322       -1.38267709181135        0.25507973109271
C           -0.29458919395058       -2.48523385000677        0.83391428503657
N            0.17059694876957       -3.41024810874361        1.34781148795416
C           -2.32938911536461       -1.52787584593348        0.10757611472802
N           -2.86682610155885       -2.75095225896601        0.36344977094140
N           -3.22949780500635       -0.66663988321289       -0.33938148577093
C           -3.06563255612798        0.64316071550252       -0.47278297634336
N           -4.16757112825805        1.27071421315836       -0.95755999739511
C           -1.96793543054835        1.44974634188024       -0.13913044286978
C           -0.63387502438770        1.11124201960309        0.07708868475186
H            2.30284063654607        2.83594175885196        0.54531193928444
H            4.53132548114244        1.94445711269644        0.46484662479654
H            5.50757917839606        0.59401469577818        0.05357368025408
H            4.30064211688693       -1.66476292604162       -0.73918106786910
H            2.46868129063349       -3.35194349764790       -1.21280011000597
H            0.81496854082780       -3.00185917390063       -0.96797690642860
H           -3.86944473697365       -2.81415999767675        0.35334621316327
H           -2.33391991869956       -3.45228314584352        0.84785355642999
H           -4.22747351990836        2.27234328493528       -0.95747830599945
H           -4.99971331319147        0.72432678113156       -1.08925098010871
H           -2.17586883682782        2.51346391493994       -0.14624782522553
