27
 energy: -50.972138352342 gnorm: 0.000811870866 xtb: 6.6.1 (8d0f1dd)
N           -5.05215593639665        0.03248284253834       -0.15081445740859
C           -3.93073108181554       -0.20851589787099       -0.07981119146447
C           -2.55061967951045       -0.48945910837339        0.00347588461201
C           -2.22232806541495       -1.77425520122049        0.44099804221520
N           -1.09916971594796       -2.42602233244916        0.34779422081511
C            0.08855932972857       -1.95698990670587       -0.02347218323673
N            0.99700647387595       -2.86531304574916       -0.33840460342780
C            0.54842826063215       -0.57717903821187        0.02084775569430
C           -0.26756464997125        0.60213951182054        0.01149355160874
C            0.40942846075707        1.85791752462925        0.19385652479669
N           -0.30979393538600        3.04658350118855        0.35031288122789
N            1.71090093267108        2.03015969811041        0.22255343887133
C            2.48029244216255        0.95983418377057        0.08318332183623
N            3.81115478730398        0.86849451513399        0.00114355969669
C            4.03046739302230       -0.44383558218479       -0.09308630852996
N            2.96062302099583       -1.24200887658722       -0.09057555633487
C            1.92067832690763       -0.37576327936956        0.02100221357395
C           -1.66559271272810        0.58396261364225       -0.29572462100165
N           -2.21829030136060        1.67395301106902       -0.84523460962405
H           -3.03838807631098       -2.37293356791814        0.83680636654656
H            0.73574458670290       -3.83678144055762       -0.27857811757178
H            1.99095547109270       -2.54523080586360       -0.37455369924109
H           -1.07079565768387        3.00525216059840        1.01582142444809
H            0.33702716446565        3.79705189250797        0.56256098184843
H            5.02457501708602       -0.84292823333726       -0.17984014651137
H           -1.64793914780926        2.48986521320139       -1.01750147596880
H           -3.20379377306821        1.68764289928270       -1.05350119027050
