34
 energy: -61.816986964392 gnorm: 0.000702588162 xtb: 6.6.1 (8d0f1dd)
N            5.47209287486604        0.06982540439978       -0.77158250008735
C            4.36382427608231       -0.08492216508887       -0.49217821421684
C            3.01200833847895       -0.27847382512289       -0.17290944063928
C            2.55205487676222       -1.62018936055883       -0.17312767890131
N            3.48024750106371       -2.57868312415603       -0.43417035707825
C            1.27103097723141       -2.06358458675389        0.12596764101379
C            0.04992826157410       -1.39778195913776        0.26086099395655
N           -0.97053884858523       -2.23650178324709        0.48989743743576
C           -2.22829598485643       -1.83356159477518        0.42126853409017
N           -3.19200141782932       -2.76930634551820        0.69050063877502
C           -2.52852114132960       -0.54050701588031       -0.00736258200028
C           -3.70328907056343        0.12712788797007       -0.40577897011086
N           -4.96324889621154       -0.37868419220219       -0.46671466453383
N           -3.45351349418697        1.40828205469995       -0.72658206701828
C           -2.14712052360786        1.62935550187446       -0.53708433083530
N           -1.64692710098842        2.81780404649399       -0.93150317246071
C           -1.46503492763227        0.43082487891137       -0.08999648826555
C           -0.14986244056471        0.04117196966791        0.15675424689198
C            0.90111687930914        0.98304400360229        0.40748391034337
C            0.48046268830005        2.21018372547230        0.92057560332734
N            0.15215771863410        3.22825286032706        1.36070375700823
C            2.29456744375790        0.87240518924155        0.22797016695322
N            3.03159458922627        1.99696319903248        0.41898820521362
H            4.41663863864630       -2.32493319370996       -0.69627764711824
H            3.20012228893014       -3.54006049117685       -0.49443992831195
H            1.15765173989449       -3.13987440860908        0.17584043712526
H           -4.06243406782280       -2.42902661317025        1.06624637230340
H           -2.83315928379439       -3.60993632049650        1.11754186167937
H           -5.62633816506222        0.20996467071640       -0.94688417877672
H           -5.04997725383744       -1.36848383187886       -0.63318242671922
H           -2.36690427293969        3.47658536861935       -1.19040847297423
H           -0.84881837561131        3.20950294121842       -0.45297345044225
H            4.03119149825165        1.96822851954269        0.31928299849023
H            2.59141428053852        2.85417138096352        0.70325612843777
