32
 energy: -58.370582050391 gnorm: 0.000522744229 xtb: 6.6.1 (8d0f1dd)
N           -5.13136764682890       -1.38253594667233       -0.68251240374165
C           -4.08547097832716       -0.92998347823832       -0.51915356617606
C           -2.83272585016684       -0.36141616017974       -0.30296404223981
C           -2.61093838926589        0.99512537235407        0.04918126614518
N           -3.59810105066075        1.92281186299717        0.21749757495442
C           -1.22432979634327        1.18890350470610        0.13611410495291
C           -0.43186669611959        2.32123535170863        0.34708960057895
N           -0.95970569916759        3.56177884394623        0.57971756393099
N            0.89136024268012        2.25323716007240        0.31457824907916
C            1.52866624339341        1.08932543579058        0.14119845443652
C            2.89862429213290        1.24156719072029       -0.08849062936184
C            3.88465319432803        0.29734069809141       -0.39430532295353
N            5.05901127341051        0.74866878043458       -0.89664220059764
N            3.87928294758328       -1.02393615149042       -0.19613534979659
C            2.85711520048295       -1.71554810304045        0.24161615918543
C            1.50141746091320       -1.41621795997077        0.36219685795238
C            0.75935763827818       -2.46751366497953        0.92291915769175
N            0.19432456915485       -3.34368348412031        1.41394365615896
C            0.81286457465252       -0.18288516525509        0.10187590970606
C           -0.56446948633131       -0.09246623358413       -0.05046053097262
C           -1.59945646960524       -1.03864239633999       -0.37180775545038
N           -1.48533573434650       -2.29380505999056       -0.85293162197174
H           -4.53627808164463        1.55061735983059        0.24636075653052
H           -3.41923627309162        2.66718936380498        0.87300824425325
H           -1.83664594196244        3.77989210575536        0.13565310637734
H           -0.27128313234437        4.29938026368104        0.56448385210263
H            3.20620459131915        2.27867972937084       -0.13502344447026
H            5.80313276784389        0.08418998008442       -1.01519535324211
H            5.25165449505276        1.73116221092692       -0.96096264302229
H            3.13197085733890       -2.73271109497848        0.51528297753173
H           -0.65699332671333       -2.83581817974808       -0.67296099459763
H           -2.34275156244780       -2.81426244279285       -0.95632688327516
