26
 energy: -47.240364261140 gnorm: 0.000824325037 xtb: 6.6.1 (8d0f1dd)
N            3.29046554431394       -3.17801887316729       -0.06076100902986
C            2.43029339495835       -2.41961003690201       -0.04747860717155
C            1.34473259097199       -1.51845348490037       -0.03468782323464
C            0.04582905590846       -1.99200784657839       -0.12833900924447
C           -1.07708848133979       -1.14855220271057       -0.07120130522789
C           -2.34634105417868       -1.75620823734782       -0.16460155668767
N           -3.50778075165907       -1.31854180808031        0.24721301874885
C           -3.77264663504887       -0.08343211371073        0.61929401652502
N           -3.22228981760900        1.02092247617739        0.19994718982975
C           -2.00107250989888        1.16659781607826       -0.29054279011166
N           -1.78288564605247        2.28947916275918       -0.98396751436106
C           -0.88561186490295        0.29027856100156       -0.02817305493638
C            0.41349663482386        0.78161008189544        0.05919436838197
C            0.99460818335596        2.05520595918631        0.16242664176202
C            2.37296958315060        1.83599088652562        0.24546232303548
N            3.35638730792464        2.76955057487493        0.31092892225720
N            2.70445388048174        0.52001332241536        0.16562905993597
C            1.55915048431010       -0.13621598732154        0.07820150888202
H           -0.11774789261891       -3.05727945075829       -0.20510273811953
H           -2.37144601990618       -2.78622863706278       -0.51017678521174
H           -4.65592798114469        0.03777642766290        1.23817540511889
H           -0.86605130428338        2.48844331007203       -1.34691643454805
H           -2.55199520294386        2.91272943799726       -1.16102546230700
H            0.51100809330217        3.00899545247996        0.25570390462295
H            3.12426134043969        3.68638580709708        0.65221537582746
H            4.27302612674481        2.41681377121544        0.53060277706408
