28
 energy: -45.880693089700 gnorm: 0.000534797058 xtb: 6.6.1 (8d0f1dd)
N           -2.69299352285149       -1.71760324145843       -0.86282260366903
C           -2.17532133132322       -0.60036870757420       -0.30360600458122
C           -3.08945273027656        0.42425827502512       -0.05093645936312
C           -2.85895985673019        1.73452784116834        0.31986786989888
C           -1.66894449973408        2.42314494516358        0.33267949661887
C           -0.38044101347807        1.96514846749965        0.01659018703982
N            0.57174443773551        2.88112800231902       -0.14914766401131
C            0.05743439965985        0.58318352634682       -0.03936038520350
C           -0.76573613507168       -0.59078290239558       -0.02039341549965
C           -0.09910329989388       -1.84641649541200        0.19018251434467
N           -0.83693195974003       -3.03095749740696        0.41391633282381
N            1.19525000638548       -2.03829118695282        0.20637270767720
C            1.98005303009362       -0.97703827626264        0.01596415152326
C            3.36755297886138       -0.83780411670245       -0.05224310526586
C            3.58858046300339        0.52835449565045       -0.16052592910145
N            2.45740444058194        1.25091395332140       -0.16700921020517
C            1.43998112273381        0.35980596081920       -0.06872794083283
H           -2.11832248219843       -2.54425637008376       -0.94291941048649
H           -3.68537707891576       -1.78558435192551       -1.00269208012367
H           -4.12971064353502        0.14328887010121       -0.16957558075419
H           -3.74229165093272        2.31502630404611        0.55739178444318
H           -1.73108240894192        3.48290076625624        0.55285811010202
H            0.34772798894917        3.85310558132485       -0.01318009068812
H            1.56153495400370        2.52219695832030       -0.21780725061855
H           -1.52916045702528       -2.94066169865129        1.14789241709198
H           -0.18092966590097       -3.77377259532952        0.62835512191444
H            4.10470140510878       -1.61462280356486       -0.02452968762245
H            4.53704029383272        1.03177664795772       -0.24036194875138
