26
 energy: -42.413210984250 gnorm: 0.000916706534 xtb: 6.6.1 (8d0f1dd)
N            4.43876128175960       -1.12608705169822        0.11571545492017
C            3.17190883369807       -0.61065801821129        0.11441326723590
C            2.87423831601213        0.77953936018007        0.13761911554774
C            1.50375635064200        0.91331791917622        0.07072051668771
N            0.76377441993241        2.02044977544972       -0.00892393999037
C           -0.54001583139912        1.90352980760656       -0.10834781951173
N           -1.22784807632674        3.10449052252532       -0.14873672600789
C           -1.25986227705358        0.65380103742069       -0.06003698706539
C           -2.63611958861408        0.68188644625294        0.06645503883056
C           -3.54205405953174       -0.37057599551418        0.26783394879336
C           -3.26732060802881       -1.71912943955038        0.24084335069569
N           -2.18763729771737       -2.33555992815163       -0.23118024801219
C           -1.01226208019498       -1.83880965757335       -0.44759172119625
C           -0.44968785829905       -0.57115826565282       -0.12242864080514
C            0.92021128502893       -0.43234741001670       -0.01945880889221
C            1.99206696494953       -1.34341187481690        0.01302781982598
H            5.17468695032057       -0.52785565658800        0.45174047393313
H            4.53525611195301       -2.10364466267485        0.33498084776459
H            3.59567314953419        1.57252861318296        0.18332851690985
H           -0.59250393207315        3.88658317563462       -0.21472832245596
H           -2.00913086339983        3.16602218793880       -0.78192881233119
H           -3.08275626739679        1.66600905881036        0.12894674648022
H           -4.56022917583521       -0.08445888776652        0.49819002983085
H           -4.04615661582580       -2.41042292699384        0.54895641508932
H           -0.32200504213933       -2.54122143640582       -0.90865273316047
H            1.92256350940504       -2.41539659566379       -0.00004222081617
