33
 energy: -58.091751172472 gnorm: 0.000743388648 xtb: 6.6.1 (8d0f1dd)
N           -5.61180585829313       -1.78817834825370       -0.42735013626747
C           -4.55330428443784       -1.35266317741144       -0.30733284876511
C           -3.29456809906229       -0.76680511957717       -0.17401747357500
C           -2.06017747736519       -1.41041897093049       -0.11634758749571
C           -1.05518625944734       -0.43012039325978       -0.02209835082676
C           -1.69814951637039        0.85412063251861        0.00273639423627
C           -0.91673745416854        2.00266449234974        0.18661994716866
N           -1.47366143407656        3.24435945933561        0.30710564498960
C            0.46939196018088        1.85205231250669        0.19053407902251
C            1.13732106029321        0.63211335396338        0.07058259383406
C            2.55176910985434        0.66579157219471       -0.04961266527297
C            3.14680345707887        1.94091119870215       -0.07848801057796
N            3.69040116052330        2.95729557984109       -0.09049569260912
C            3.48193689828405       -0.40284719446612       -0.18861893674671
N            4.77545993430235       -0.06427780086540       -0.44151361287614
C            3.20441139930057       -1.75851642165292       -0.07519049039058
C            1.96416436834178       -2.36643220611191        0.16155090502986
N            1.95527902155040       -3.71420750818614        0.35294086038388
N            0.74882856404015       -1.85094141353009        0.15676918073815
C            0.33786470934534       -0.59895830193149        0.05376384183576
C           -3.08254766961196        0.64328547870594       -0.11548118868978
N           -4.08071639495944        1.58493403807857       -0.13852143517471
H           -1.89862377714626       -2.47012272794090       -0.15353928021403
H           -2.41203793828286        3.29281540703657        0.66850193418558
H           -0.85700705207983        3.98697170895064        0.59784806032130
H            1.06232410249887        2.75228941327876        0.28089501209786
H            5.05933680300562        0.89969610841792       -0.43600938883286
H            5.48392223912125       -0.77481289408082       -0.44459978511719
H            4.05290625680081       -2.42717009730660       -0.15565214668707
H            2.80334731269668       -4.22057696704081        0.52624667153541
H            1.07446768046995       -4.13345274884073        0.59252514160611
H           -3.86538560449969        2.45722765978852       -0.59734839071671
H           -4.99482953818760        1.21836180091772       -0.36502091064915
