30
 energy: -55.704059240144 gnorm: 0.000621494688 xtb: 6.6.1 (8d0f1dd)
N           -2.78362284158003        2.79055306210034       -1.56141155257460
C           -1.89066398446309        2.32561557375731       -1.00906824104205
C           -0.69801831036958        1.80259555504269       -0.46421319185587
C            0.38659808605229        2.66828894809005       -0.36761960077409
C            1.58222813507411        2.16429615774998        0.10332137505924
C            2.82473996718681        2.73335644903077        0.45243684534665
N            3.68301232972461        1.80280599066940        0.86173340870542
C            3.07527655518355        0.61545695113383        0.75769761352385
C            1.75034951412240        0.74426640378309        0.29344659488589
C            0.71389886905841       -0.16897012825552        0.01138762381122
C            1.01004875519338       -1.52257344466242       -0.22511239360482
C            2.36875513823239       -1.85795047307513       -0.42024894912174
N            3.42609718819063       -2.24588438501180       -0.65267402288839
C            0.13426601078346       -2.63410573775215       -0.40484453250733
N            0.68395417148308       -3.79692357754614       -0.82587133447476
C           -1.22299137433388       -2.66584243224293       -0.09743462215511
C           -2.08786783174681       -1.64098785038119        0.27538931072600
N           -3.32578053191848       -2.00413543300646        0.68202096554423
C           -1.81426116798712       -0.24719052524440        0.17401145232624
C           -2.91509887168569        0.56902389510609        0.52795924940462
N           -3.83028843452206        1.12205550026053        0.95071963594825
C           -0.61306279188159        0.41987426433672       -0.12515760682973
H            0.26802056857173        3.71040230396032       -0.62593984067076
H            3.09811180232613        3.77209428303386        0.43643397859886
H            3.59309060304900       -0.27130280241523        1.06978234089574
H            1.66667936752809       -3.85867732324673       -1.02863141791718
H            0.11457543173321       -4.61659473661013       -0.93100854817657
H           -1.67486720224443       -3.65057751069876       -0.13629206307011
H           -3.58512472941162       -2.97322749572434        0.71155544211292
H           -4.01851152484639       -1.30896327628434        0.90226294327545
