28
 energy: -46.675354173918 gnorm: 0.000906301644 xtb: 6.6.1 (8d0f1dd)
N            0.08140997800523       -3.62912786804605        0.75355791427432
C           -0.35108337239062       -2.59553783366141        0.49293985051944
C           -1.00964341972837       -1.37685459453871        0.22635371387968
C           -2.40171663287832       -1.51375452750955        0.31418359877405
C           -3.38573377594493       -0.58193415534805        0.10194206885938
C           -3.16470964749620        0.78399022347463       -0.19746493892031
N           -4.21603230401559        1.50581981962694       -0.66504225022926
N           -2.07224387019288        1.48759235447302       -0.01150591661820
C           -0.80613399730114        1.13737012743678        0.18257101656027
C            0.04706075196894        2.21521770706079        0.47600716457116
C            1.42030347268246        2.10824940339168        0.43666140700323
C            1.98834856572256        0.89992828262701        0.07439866604144
C            3.33335688538808        0.49999242144918       -0.12436610140342
N            4.43041913647940        1.29677595004900       -0.04275687941536
C            3.32608625052713       -0.86247882522429       -0.49226566268973
C            2.02907752090593       -1.32536567299239       -0.49512444897050
C            1.15544855970915       -0.26090492243868       -0.13596929953484
C           -0.22583290872886       -0.20163063090414        0.03523176314415
H           -2.73939217790356       -2.51961344472953        0.54045414839090
H           -4.41480464812351       -0.91270675565381        0.14199023381187
H           -5.14011752243875        1.11598789081303       -0.68849513889460
H           -4.09461324389756        2.49752467370667       -0.77124060546912
H           -0.42481751771425        3.16479982635337        0.67433355644762
H            2.03291220921022        2.97731145503735        0.63797867342059
H            4.34096311527832        2.19138721768577        0.40636811214681
H            5.33464435796543        0.85805465314763       -0.01706285698348
H            4.20234902249982       -1.43716407275347       -0.73133040111020
H            1.73187689669049       -2.31983541360874       -0.76617460791481
