30
 energy: -54.138608879363 gnorm: 0.000866905186 xtb: 6.6.1 (8d0f1dd)
N            2.21209264460750        3.30954730161632       -0.19927963445139
C            2.14177378168018        2.15592396536299       -0.16597042629068
C            2.08667499077560        0.77636444861680       -0.11187646421606
C            3.21336777433771       -0.07864211006671       -0.24326378371210
N            4.50461756666096        0.32243058323751       -0.31311773492299
N            2.89398577702021       -1.38184259293808       -0.22130060487650
C            1.56639739070293       -1.43353443580054       -0.11408837417812
N            0.84387041675544       -2.54105560981410       -0.10083583065017
C           -0.46482522684495       -2.43842737930655        0.00397886236283
N           -1.12499404929085       -3.65282696495902       -0.01937955728994
C           -1.18000260095526       -1.20446455211999        0.14443341992519
C           -2.58002339103038       -1.26711609856627        0.29662199424435
C           -3.53252223332248       -0.30797424914203        0.07883662525261
C           -3.26107449795856        1.03995580577975       -0.26926691566500
N           -4.21841278413996        1.76344592977101       -0.88466712303904
N           -2.18519100067526        1.70589784545327        0.08562202789092
C           -1.01688776730051        1.27578911956532        0.50030647274954
N           -0.32915561571341        2.12419171582706        1.26952582817248
C           -0.39864922813541        0.00746890651795        0.15582090303411
C            0.97156423852206       -0.10081374845375       -0.01765247741867
H            5.17670176334551       -0.37899010461021       -0.57170411115617
H            4.69600757002735        1.27869644066002       -0.55889942179458
H           -1.99884062026501       -3.70693543625422       -0.51553446835304
H           -0.48559886321963       -4.40469493596707       -0.23416065189718
H           -2.96637807624698       -2.24916064082186        0.53812272340566
H           -4.57288288310737       -0.60223875541612        0.10972909196434
H           -5.08309411279059        1.34230100461812       -1.16788088348659
H           -4.02411545001217        2.71879565516874       -1.12664840938555
H            0.64445216091329        1.95877948051214        1.46631345271240
H           -0.68744300764087        3.05597995722980        1.39910946616955
