34
 energy: -63.408095843928 gnorm: 0.000974949183 xtb: 6.6.1 (8d0f1dd)
N           -5.45876114032461        1.52750655135853       -0.45161769930244
C           -4.47179539278292        0.95587189781806       -0.30359683985465
C           -3.26932467420208        0.24480535310441       -0.09811407627646
C           -3.43247569733084       -1.06763172992544        0.39207710526129
N           -4.66079990567328       -1.45721282248574        0.79012400977300
C           -2.41357471682176       -2.04144902527635        0.39551394080268
C           -1.08696241084596       -1.89630339777815        0.12040584733131
C           -0.26806471092882       -0.74960620494800       -0.02004638173600
C           -0.73442285861235        0.61269501205494       -0.05546655703924
C           -2.08748618142289        0.95350933618433       -0.41585469100852
N           -2.26107026181495        2.08531543709838       -1.12165234432806
C            0.19664523718232        1.66761904740110        0.13406931728361
N           -0.22892623490280        2.99119145936013        0.27733217215657
C            1.57730083788569        1.41866122764096        0.15784310911050
C            2.45931346948121        2.49772843507178        0.37852948171010
N            3.10838746443446        3.42168271846261        0.58605723004985
C            2.05504598982920        0.12117992997934       -0.02253479889800
C            3.36460408945486       -0.40071435320359       -0.09109288603166
C            4.55920661629830        0.32446424069688       -0.08098004248896
N            5.55430191529265        0.89895660286310       -0.08346464919048
C            3.25581977303617       -1.79197763334277       -0.18325144544598
C            1.90201159821375       -2.15955469115410       -0.16556980057962
C            1.48343823767509       -3.48760734609182       -0.24864122395129
N            1.17261420737641       -4.59506045653378       -0.31248958803438
C            1.11979531232936       -0.97545187622440       -0.07971964124215
H           -4.82360260251941       -2.41491659808474        1.04701413022231
H           -5.44857486122833       -0.83434552660884        0.72386803254343
H           -2.74819691361269       -3.04668751062071        0.61891884264686
H           -0.53154610246390       -2.82408855755205        0.10937852397062
H           -1.47446357182267        2.68785893764791       -1.30970627337781
H           -3.18623924892899        2.38727400092580       -1.38015397341825
H           -1.06090380354765        3.12334224432368        0.83558689274673
H            0.51773971986962        3.61690827624093        0.55243304065770
H            4.08038589852709       -2.47719155770301       -0.26003215136281
