31
 energy: -60.236585343255 gnorm: 0.000959374411 xtb: 6.6.1 (8d0f1dd)
N           -5.72334086722738       -1.21148755940733       -0.69149595253101
C           -4.59887361565671       -1.22649621210468       -0.45809398235266
C           -3.22576053905575       -1.18728275175121       -0.19261296389458
C           -2.43028347634567       -2.20344530305009        0.29340779693722
C           -1.09616279073220       -1.72771737907661        0.34600913259756
C            0.06472706041209       -2.36249087069063        0.70620154042904
C            1.28261176586705       -1.69338574897540        0.50850123598951
C            2.46068692641806       -2.38624053056020        0.86708053089036
N            3.35659138737163       -2.97691857439229        1.27269724393936
C            1.33920319303951       -0.36882302826450        0.04179995301255
C            2.55378502554932        0.11739509551897       -0.52986979726654
C            3.48745666638482       -0.83419267324704       -1.00373117942586
N            4.25061693517465       -1.53533801448063       -1.49642018567852
C            2.88518930629368        1.43210354590341       -0.84762087454987
N            2.36062872138084        2.54896512766618       -0.40888478421444
C            1.21366620511400        2.70373762738383        0.22721179483255
N            1.07348067347479        3.89521016061587        0.83547277161008
C            0.09574516893156        1.80788846699448        0.21191362011336
C           -1.10311842855152        2.38988738617117        0.64571813123242
N           -2.05948153038318        2.91440312397057        1.01769376107547
C            0.10769675755749        0.40887546770563        0.00389793184308
C           -1.08641316385108       -0.33636846168570       -0.06162648917574
C           -2.41544108595055       -0.01786404179287       -0.43734784064462
N           -2.90832139733046        1.04913486877504       -1.07833019221724
H           -2.75492990941773       -3.18852455477280        0.57050204932394
H            0.06715296144630       -3.37792335698188        1.07259916324980
H            3.76999692054614        1.58070140364563       -1.45865071733927
H            0.21959453276158        4.15952064816982        1.29551803995977
H            1.84333868833753        4.54026088537824        0.78999797803610
H           -3.90282361892987        1.09177719092369       -1.23752950752947
H           -2.37950519822069        1.89498107833850       -1.19641782096909
