35
 energy: -67.140689624265 gnorm: 0.000689983168 xtb: 6.6.1 (8d0f1dd)
N           -5.77418461824319        1.83117342395755       -0.91646933510532
C           -4.81551829222179        1.24305648332841       -0.67687517588013
C           -3.63047382434736        0.56064297793239       -0.39464794049458
C           -3.50432505605395       -0.76865931600294        0.00766553980845
C           -2.14150818188810       -1.06368156535684        0.13141578635007
C           -1.49971667438052       -2.26331475618763        0.46035148255213
N           -2.17490557730243       -3.37033916474365        0.82260776058143
C           -0.09104480866603       -2.29817863223928        0.32924615600973
C            0.57230367047985       -3.52912305360236        0.47121214834635
N            1.06502214064892       -4.55887595903146        0.60398803459999
C            0.66199182771747       -1.16326799495949       -0.01944301943686
N            1.89331571193110       -1.38903764288828       -0.43415501835558
C            2.91672577681999       -0.60648636709503       -0.65285520387796
N            3.88695142164269       -1.13648210790629       -1.42768537279859
C            3.14026056532780        0.68246999375870       -0.07865551001335
C            4.46515008801050        1.14381942177961       -0.06845690786236
N            5.55595703537991        1.51294864499802       -0.07090168233643
C            2.14856778938023        1.52042018775363        0.45757311255916
N            2.56361788591330        2.67633199375947        1.02575767265521
C            0.74019404820555        1.30480651798542        0.37582733908693
C           -0.02227827588649        2.36624770878534        0.89235806562312
N           -0.61199659495961        3.25418123642829        1.33021989279765
C            0.00952495208561        0.15098054235554        0.00904976671685
C           -1.38469810210960        0.13995454535540       -0.13360070326344
C           -2.33576801241662        1.14325086199130       -0.49467825868723
N           -2.13666443841021        2.35682000892480       -1.04552550955518
H           -4.32906958757953       -1.43654547068245        0.17760437040373
H           -3.17843248315246       -3.37617919965836        0.81197232469159
H           -1.68020885486196       -4.23723585014285        0.94949992177809
H            3.79002543315749       -2.10063180588543       -1.69698413402879
H            4.78782536326358       -0.69406751496135       -1.49281622156460
H            3.54694636977731        2.87952537672329        1.08192992904896
H            1.90443300182136        3.32965857184906        1.41195576277571
H           -1.25881167425593        2.83584995331116       -0.95174680459075
H           -2.95286494282957        2.92990885116720       -1.19231198203115
