31
 energy: -60.240844562384 gnorm: 0.000832159062 xtb: 6.6.1 (8d0f1dd)
N            5.30044976802143        2.50066165271831       -0.63966736154104
C            4.35446191036617        1.88516168499780       -0.43540209912117
C            3.17979401888846        1.13462466239010       -0.19410504322681
C            3.26764616610019       -0.24869210095841       -0.37836231609121
C            2.30244877477441       -1.20511279115344       -0.13815928220738
C            2.73300942705830       -2.55104702740265       -0.27887513457491
N            3.13167478797638       -3.61922404124862       -0.39838120234168
C            0.90398407009101       -1.08601789953464        0.14565557480256
N            0.32491122273867       -2.25378861736112        0.34044830536401
C           -1.00476690222531       -2.38715066837429        0.41076403424598
N           -1.45475823580707       -3.61437872029528        0.70551559560140
C           -1.83249831268725       -1.29222690266228        0.13299743434610
C           -3.21307432041110       -1.16936697936669       -0.03128816718722
C           -3.49877357672988        0.16554787827701       -0.33003254201262
C           -4.75659011701190        0.70809955904430       -0.61102580554096
N           -5.77632390200936        1.18246551090287       -0.84724746282534
C           -2.29672422561717        0.92154078301013       -0.32763124601128
N           -2.25009340655733        2.19669042114426       -0.74567007307718
C           -1.22405179997260        0.01665908012606       -0.00921432286565
C            0.15273232665809        0.16317307234963        0.14832380383516
C            0.76960020245536        1.42331563422366        0.44974281896568
C           -0.05629675892952        2.38046733934281        1.07734390201338
N           -0.69840770237360        3.16508251132382        1.61908379183379
C            2.07655660248706        1.84639823419270        0.28459583484744
H            4.23677031681243       -0.62290587414459       -0.69053383424097
H           -2.43581402946795       -3.82465255864445        0.70121334929375
H           -0.77791903159135       -4.34978158018922        0.81878753707256
H           -3.94410383798445       -1.95341132109888        0.03902449965976
H           -3.12965748533892        2.66303205141875       -0.90503703558643
H           -1.44076760418762        2.77631314045434       -0.60948762363703
H            2.26687805417412        2.88294641821788        0.54506410120832
