28
 energy: -46.683633150111 gnorm: 0.000821631701 xtb: 6.6.1 (8d0f1dd)
N           -3.41384355705550       -3.04883472063387       -0.00414312052939
C           -2.88639267351588       -2.02675461400069       -0.00077442884527
C           -2.26309057696620       -0.76104072644363        0.00081733219718
C           -0.86372614576303       -0.79278166949208       -0.00022204819077
C            0.10002395698633        0.20120836258827       -0.00277364966716
C           -0.15448650947821        1.64048380110166       -0.00288974596956
C           -1.43494776828954        2.22468213638769        0.00052885018837
C           -2.70108041843150        1.70084850947013        0.00298635614653
C           -3.12412705514957        0.35792848165660        0.00277487961842
N           -4.45792393097404        0.13146523150144        0.00450227069269
C            0.93012080976352        2.52459191184449       -0.00651693379142
C            2.25637197982464        2.12314774480931       -0.00926350438452
C            2.54376425440148        0.77358485828487       -0.00860844496597
N            3.74326318040142        0.16984453486906       -0.01731098541588
C            3.48320765686581       -1.14518818063072       -0.01812019702256
N            4.49089587058892       -2.05425536316902        0.03109634947902
C            2.09618466015775       -1.43657254844969       -0.01276483662459
C            1.45748825985108       -0.20651978706849       -0.00637601167016
H           -0.46354459166330       -1.80034295343336        0.00061897942004
H           -1.41044222432282        3.30952897646707        0.00098797395733
H           -3.51137291887265        2.42112956308478        0.00513546962241
H           -5.10456306332514        0.89929237600442        0.00652487730221
H           -4.81371441934292       -0.80935414894671        0.00500469871211
H            0.71632573322008        3.58477277084427       -0.00648750716613
H            3.05336722682474        2.85040952431228       -0.01154801567553
H            5.41390950524268       -1.69831298923571       -0.15155338951986
H            4.29570877414413       -2.99930020592662       -0.25052279354093
H            1.67747923047772       -2.42482545529574       -0.01246007265656
