27
 energy: -51.005250148990 gnorm: 0.000833369800 xtb: 6.6.1 (8d0f1dd)
N           -4.15073931483722        2.41726544640250       -0.69700712922022
C           -3.24139560501630        1.74577772417040       -0.50190272609662
C           -2.09307240331776        0.96603700495744       -0.25408589055334
C           -0.86034055869813        1.58820300151391       -0.08412704156820
C            0.32883243076847        0.87892459393880        0.12998441151423
C            1.54260478957118        1.61978850309127        0.44001628901154
N            1.41369384478398        2.78420314609072        1.09366874876942
N            2.76059059485570        1.30013693175225        0.09367283081176
C            3.18196275220589        0.12353299511315       -0.36791607858692
N            4.31024679293506        0.16162546758301       -1.09619781039345
N            2.73089063424718       -1.08462763980792       -0.07389669692148
C            1.49662386149026       -1.39004687011700        0.28782224101081
N            1.27221679703089       -2.63617842052256        0.68242642249189
C            0.32071733794920       -0.53928030244877        0.16370020019732
C           -0.92847829410888       -1.15948881189689        0.09568958392550
N           -1.25656782701345       -2.46856799222328        0.20271855086442
C           -2.58353612413916       -2.47667701173875        0.03664007471586
N           -3.17009216105637       -1.30166489721526       -0.16743620393161
C           -2.15162293940029       -0.42587028304389       -0.13511014000395
H           -0.82302965212307        2.66579551808855       -0.16825131505953
H            2.24363448020170        3.31042203666182        1.30681518007299
H            0.51727511497895        3.11423648904889        1.40262535370230
H            4.75045541325026       -0.70182505663667       -1.35778742367606
H            4.76957979971831        1.04019831619403       -1.25164941122450
H            0.27953416100124       -2.94960885963893        0.65939554495978
H            2.04244820516432       -3.28447500160397        0.66534279057849
H           -3.14759291434191       -3.39046137881284        0.07897797630994
