31
 energy: -53.847571773768 gnorm: 0.000654622679 xtb: 6.6.1 (8d0f1dd)
N            1.03297544411469       -4.17700943810568       -0.46281041517016
C            0.55542826446256       -3.13740444514769       -0.35012035925847
C           -0.07604349785410       -1.88745206980175       -0.22061657568516
C           -1.47121688192273       -1.82723279900187       -0.25527791488456
C           -2.07088156194816       -0.60938920545500       -0.05772348409408
C           -3.42665196397929       -0.17075637444433        0.04532957704610
N           -4.53486513315775       -0.92879058212293       -0.10748214810385
N           -3.50074809385348        1.14006217321062        0.28742333452339
C           -2.23296989716398        1.60815218996045        0.32512393860787
N           -2.01891530547159        2.93341893672072        0.56991745688274
C           -1.27927549688195        0.58707983308293        0.09966353986780
C            0.12186806463734        0.57489587825951       -0.00403423744582
C            0.82311660025552        1.76681096922657       -0.21325225169237
C            2.19721603267664        2.01176693964002       -0.31025832472066
N            2.56184476857100        3.30896458778260       -0.57525436744602
C            3.22872344840556        1.10743120192999       -0.06090840358384
C            3.08299920716002       -0.24300302289072        0.28118123063851
N            4.17866380947371       -0.91016255197973        0.73841417544634
N            2.02188858598405       -1.02253415225380        0.17774360966879
C            0.74452234378748       -0.74312879079930       -0.02164582370740
H           -2.03905583281073       -2.73585805999692       -0.40223494844950
H           -5.41335865496480       -0.50999180412331        0.14502321406570
H           -4.45101625269918       -1.92793362041795       -0.04544207932270
H           -2.84603937599095        3.41788229531761        0.88648852660825
H           -1.16898105030893        3.16800864979848        1.05998443845446
H            0.20014409359694        2.62931705493230       -0.41386274760249
H            1.86729692642891        3.92495048015916       -0.96166637855210
H            3.51227512878492        3.48498268920430       -0.85162181480817
H            4.23937285042921        1.49420508459561       -0.09659490330287
H            4.09300902590874       -1.91042798673434        0.80419894454119
H            5.09468263703353       -0.51144188594678        0.63954790437871
