31
 energy: -55.459188884946 gnorm: 0.000458057459 xtb: 6.6.1 (8d0f1dd)
N            2.95363893271090        3.57115938249270        0.00402295597084
C            2.13854311667760        2.76463167146434        0.00250074768043
C            1.09416226593887        1.81365212207078        0.00043615759622
C           -0.22205646627191        2.25235509362116        0.00354830981276
C           -1.32103727168779        1.37939975127092        0.00218808237402
C           -2.58639983512345        1.99732094653935        0.00435550645384
C           -3.86543875091867        1.50355693639604        0.00383984234781
C           -4.30318870681046        0.16834743805157        0.00338437532314
N           -5.63637882866152       -0.05094839778550        0.00369906844184
C           -3.46442131880196       -0.96247247249091        0.00329331774239
C           -2.09777993552803       -1.03564926293863        0.00062745165699
C           -1.08573244764898       -0.05439876521674       -0.00209454547322
C            0.24968175214539       -0.49243878408149       -0.00755710583007
C            0.82054418759236       -1.79376586481060       -0.01686163446568
C            0.20735876607356       -3.04152275789862       -0.03484217622840
N           -0.22861175263710       -4.10938015679753       -0.05553061531117
C            2.23139838704332       -1.66261536188407       -0.01799881107621
N            3.11733659726025       -2.67905407596733        0.00839930566016
C            2.55916262904213       -0.28460093793377       -0.01158373157481
C            3.86580746363494        0.20029084237159       -0.02191228575865
N            4.97051645478026        0.52057717014406       -0.03868067876483
C            1.35373568434941        0.43931380253525       -0.00529263204921
H           -0.40372818214575        3.31768585464970        0.00714904305922
H           -2.53329343515890        3.08068811534009        0.00621010104303
H           -4.65761929456831        2.24316216089430        0.00473655999041
H           -6.28373475687202        0.71694276302341        0.00450823083740
H           -6.00013499254592       -0.98721986124798        0.00427857472700
H           -3.98421140619410       -1.91325714404670        0.00505460882423
H           -1.71433268076179       -2.04807043225539        0.00062509129136
H            2.79452262056509       -3.62470784753908       -0.09722026175068
H            4.09764083242268       -2.48134458107379       -0.09013271954981
