27
 energy: -46.953076372389 gnorm: 0.000825056229 xtb: 6.6.1 (8d0f1dd)
N            5.31669649337353       -0.04639248502943       -0.11320079496973
C            4.18299597416005       -0.23495131509929       -0.08268661674232
C            2.79049797211833       -0.45487447440465       -0.04282897437102
C            2.37534558810973       -1.75082056552942       -0.32770699511582
N            1.21844641860940       -2.31456049232675       -0.06006269496381
C            0.09106805095843       -1.72765518150974        0.22372388909871
C           -0.31373113156635       -0.39134763079899        0.04218811517868
C            0.56762058281436        0.76644890871964       -0.01369756540927
C           -0.01839878590274        2.03543145484096       -0.19254768788224
C           -1.37528197905965        2.24736721033941       -0.30775452639170
C           -2.25182550403890        1.17847729698906       -0.16332714150788
C           -3.62904804750050        1.00298539737706       -0.16640209890718
C           -3.82556796198273       -0.38217683071351        0.00384028487487
N           -5.01554469326250       -1.02441717248234        0.12538200103644
N           -2.66922620772606       -1.07222724273284        0.10150052072748
C           -1.69343278275242       -0.15814503876916        0.01967261657477
C            1.96696064482710        0.68774291797696        0.21841259103504
N            2.62886970975221        1.79367319098708        0.61960784772730
H            3.12378922693069       -2.43897602679109       -0.70834695039479
H           -0.70005435668004       -2.40119524885980        0.53854074137106
H            0.62534996145451        2.89504406625782       -0.31994702575775
H           -1.74964001475961        3.24280274618319       -0.50173805377763
H           -4.39432907860516        1.74709625329045       -0.26864993338826
H           -5.84192870046607       -0.56292041791943       -0.21243223460233
H           -4.98632762886653       -2.02779058380922        0.06185418456870
H            3.63250671175767        1.77744884934120        0.69753870596156
H            2.13828334700313        2.64623545107279        0.81678670722707
