25
 energy: -44.299903373597 gnorm: 0.000609978006 xtb: 6.6.1 (8d0f1dd)
N            3.55830648653953       -1.11431718510544       -1.11803753027961
C            2.74738456633405       -0.44701459567536       -0.65772744318843
C            1.79206358271565        0.49315118486335       -0.18731504755436
C            2.24331660075127        1.81794242528054       -0.31771091698078
C            1.63382008124106        2.97502722695305        0.11420643796152
C            0.35533638732852        3.03665624106283        0.68778390273545
N           -0.60637168859733        2.17656954010253        0.56471893824425
C           -0.64593123008652        0.91756928867544        0.18061106657473
C            0.51871857966298        0.00686828203952        0.17707969035798
C            0.28383405202110       -1.37166485667177        0.34124869942414
C            1.32814566045797       -2.25581561277935        0.69018414543973
N            2.10587721378598       -3.01398925974930        1.06054498198407
C           -1.00226633143527       -1.92195252258252        0.21143274883123
C           -2.06260436570843       -1.10227426836133       -0.09199660691728
C           -3.44007002063036       -1.35341308724236       -0.29031577414622
C           -4.08433984023716       -0.13370487107809       -0.42089285718032
C           -3.15454854452735        0.90579076494218       -0.29463855557004
C           -1.88867832580082        0.33872966570518       -0.10145551080085
H            3.23781656268281        1.91611472135779       -0.73752180852598
H            2.18978377716713        3.89863123904184        0.03587316043936
H            0.07380710039680        3.94206642169938        1.21668794600353
H           -1.12708597078289       -2.98963170996144        0.32413144626723
H           -3.89660586707741       -2.32509669001093       -0.32045441959720
H           -5.13747222754977       -0.00064526164627       -0.58964308871074
H           -3.36595929145263        1.95726130553875       -0.34298440131143
