29
 energy: -51.219269835560 gnorm: 0.000493800804 xtb: 6.6.1 (8d0f1dd)
N            5.15937684081641        1.92143324229214       -0.05825068153882
C            4.14994081058360        1.37434676677222       -0.01112270503575
C            2.93422317034457        0.66327385839601        0.03087565873757
C            1.78326090316204        1.35736920108039        0.36435416114404
C            0.43685164052644        0.96151511845037        0.30779699588733
C           -0.52747873025573        2.00361908859889        0.38347880824242
C           -1.86625180876695        1.78414156862853        0.21536588256978
C           -2.31854898884380        0.48595620188594       -0.02768342355640
C           -3.59402021992809       -0.04305512009981       -0.25594145007919
C           -4.78572805978561        0.67535499125861       -0.31278447120666
N           -5.76997375266654        1.27054191891942       -0.35526990589532
C           -3.45281965560031       -1.44752660624783       -0.42849793703518
C           -2.13478936140750       -1.80090997994763       -0.27698297945762
C           -1.38024124046240       -0.62261201484031       -0.02270076898801
C           -0.02547026890561       -0.39093137087387        0.18559737896109
C            0.87777105334768       -1.50019125982694        0.44134143737941
N            0.38333819139323       -2.54867121956155        1.11164465136898
N            2.11724641411589       -1.62554633045552        0.03749539627195
C            2.99249670102536       -0.71851937966702       -0.33648893979438
N            4.06507078484036       -1.16946381018071       -1.01149817702430
H            1.94153208923838        2.40728646071674        0.58645914069838
H           -0.16662752476160        3.00888383834253        0.54371838952890
H           -2.57157212624038        2.60141414749887        0.25464006825361
H           -4.26767302300600       -2.11580263328183       -0.64345847009109
H           -1.74291637298490       -2.79348028595341       -0.41092789588159
H            0.97866256850198       -3.33650020572293        1.30157785248649
H           -0.57326292304224       -2.54512695185329        1.42195458607203
H            4.14314265098617       -2.15371237554944       -1.19825213717071
H            4.83697640907549       -0.55742853147875       -1.21336269104600
