30
 energy: -50.131933672029 gnorm: 0.000447269290 xtb: 6.6.1 (8d0f1dd)
N            4.88142730309911        1.97579340840857       -0.16700999226656
C            3.94048232617243        1.31480043745985       -0.10642902795299
C            2.78114474905480        0.54462670071176       -0.04472553620420
C            2.70521369845043       -0.85831715197165        0.00796821864898
C            1.35972151685335       -1.22783857237208        0.03918420125640
C            0.70962632049447       -2.46894857306579        0.07949209695682
N            1.40103524002372       -3.63563680402299        0.16972355510097
C           -0.68643488717380       -2.46863233528106        0.05668081456318
C           -1.48272677148546       -1.32457400066401        0.00578027471969
C           -2.87884612519667       -1.51616584013468       -0.07259209011459
C           -3.89945211810690       -0.59224748207945       -0.14252232858710
C           -3.82984449686616        0.78932241874823       -0.10510437729358
C           -2.66390246595354        1.56465000805354        0.01695336741758
N           -2.82922736107522        2.92405047446527        0.06159590170556
N           -1.39442218044066        1.20076853111674        0.04323848645178
C           -0.83172204980714       -0.01195621684631        0.01267503463860
C            0.56371318507800       -0.02840710676801        0.01196661126161
C            1.46530285086263        1.06948441062171       -0.03820663444657
N            1.08562438465862        2.36047393058094       -0.04687681445141
H            3.55982769341278       -1.51111640559669        0.02012343442932
H            2.39312307089370       -3.62237964461335        0.01563989415717
H            0.91792605990793       -4.50443359530194        0.02276564884592
H           -1.18580179443071       -3.42922424798941        0.06880835269330
H           -3.18917415492781       -2.55441499137312       -0.09522990906435
H           -4.89869285052288       -1.00467385363276       -0.22164393152961
H           -4.76196303464035        1.33644230062507       -0.15383723470905
H           -3.73914735219984        3.29968060330253        0.26134133060883
H           -2.03419129851653        3.47522124075964        0.33626872949411
H            0.08586238228218        2.48665849123967       -0.15643293261661
H            1.74891840749939        3.08247109521976       -0.26913599091327
