26
 energy: -44.038298479950 gnorm: 0.000559713395 xtb: 6.6.1 (8d0f1dd)
N           -5.67836762641348       -1.61612999882608        0.00260643103925
C           -4.63408330666818       -1.14155011825069        0.00029635917404
C           -3.34616832584578       -0.55463388431880        0.00098086559053
C           -3.30093914971812        0.84323669236552       -0.00003226123024
C           -2.19784795980160        1.66522659026016       -0.00067886815169
C           -0.81482458153903        1.39857977982959       -0.00054953311683
C            0.02151335481449        2.52885465109135       -0.00153012092563
C            1.39758734734782        2.45706439983213       -0.00152489925054
C            2.01005174931966        1.21258024038297       -0.00050747406410
C            3.35300204657109        0.83153289658094       -0.00018783013413
C            3.39202787651019       -0.57404135884967        0.00108997823671
C            4.55719155512362       -1.35344683821057        0.00225255689420
N            5.51164769676231       -1.99180431308447        0.00163616164144
C            2.08428926666228       -1.07886245870864        0.00142215842504
C            1.19414893026726        0.00961362684046        0.00051248462185
C           -0.20879642258929        0.06935964567029        0.00050092470325
C           -0.91630847605855       -1.14847175869867        0.00144862799552
C           -2.26058250122615       -1.43767685477815        0.00164117902733
H           -4.26549159382281        1.33745554394050       -0.00047147942709
H           -2.43453153277332        2.72357833229634       -0.00150891450261
H           -0.44728253589167        3.50225883145056       -0.00232843694573
H            1.99085490678293        3.35997344493572       -0.00229043839176
H            4.20600174420416        1.48361960460141       -0.00067594401200
H            1.84745914332820       -2.12669744415065        0.00237539326609
H           -0.27650253636790       -2.02104182205190        0.00206654175864
H           -2.52264075177815       -2.48945594524964        0.00231043117848
