29
 energy: -51.204488606751 gnorm: 0.000573999070 xtb: 6.6.1 (8d0f1dd)
N            5.77753079837945        0.25214307087665        0.47911583423369
C            4.66892319681153       -0.01095960356283        0.32172199514638
C            3.30702316177178       -0.26998380800432        0.15352014321872
C            2.69931965053654       -1.50668828237482       -0.04506867777015
C            1.30962105949270       -1.30215385462202       -0.11154291686841
C            0.26488622723201       -2.18696660156739       -0.28129757120803
C           -1.04219204160243       -1.70782320782007       -0.23765155146754
C           -2.12115114110517       -2.61054369880588       -0.31872707166264
N           -2.98532054639410       -3.36289421484941       -0.39402144143221
C           -1.34231374535619       -0.33096428317732       -0.06359989867238
N           -2.60568674239815       -0.06517589118588        0.20757548760950
C           -3.29378592277223        1.05112891620684        0.25709101421626
N           -4.50236792684339        0.93772775039776        0.85402404652616
C           -2.93451248282725        2.30044611169953       -0.31271944463023
C           -1.65352538489532        2.67643630251767       -0.63766065659195
C           -0.46104797088018        1.97946317801014       -0.45918602006827
C           -0.24754696668907        0.63891318132527       -0.11599372908536
C            1.05251029845524        0.12000756782386        0.01073886905688
C            2.30278013277888        0.74603721607197        0.19892124216145
N            2.57423102763981        2.06592789444930        0.39607622285161
H            3.20567392906056       -2.45030276200790       -0.12442433253028
H            0.44293160554215       -3.24607487378375       -0.40149302218356
H           -5.18253522154699        1.67259254787528        0.78357045259354
H           -4.79999290446004        0.01804999481872        1.13149437408139
H           -3.73246533702804        3.01422070229178       -0.46490443298322
H           -1.54432435158155        3.67553456436827       -1.04308956723007
H            0.43140353189757        2.52585358338310       -0.73408228208739
H            1.84807952750246        2.64401406641624        0.78814711180780
H            3.51528975077744        2.28312092542789        0.68921883506913
