32
 energy: -58.374285066239 gnorm: 0.000626882670 xtb: 6.6.1 (8d0f1dd)
N           -4.50690947818657       -2.64206996557580        0.00680459503399
C           -3.67838215355659       -1.84446986021979        0.02292439135283
C           -2.71375203119693       -0.82116552589141        0.03193531306867
C           -1.38582531308600       -1.15419011344729        0.20277673334634
C           -0.22810532985464       -0.36597335557186        0.12183128912838
C           -0.15063399041943        1.08385623830697        0.09246566773928
C           -1.30867437036911        1.85374787254461        0.43860296500097
N           -1.15035239524346        3.01535427993409        1.10164758537165
N           -2.56855373698366        1.61257264164152        0.11380618389547
C           -3.18986216791947        0.51296497993759       -0.21820764813754
N           -4.41328032212865        0.66050838023593       -0.76039549387487
C            1.09395416646828        1.71547927026127       -0.11150634545920
N            1.18706893058332        3.10882460216092       -0.19277853866941
C            2.28550053993766        0.97538114004881       -0.21435544568257
C            3.49763161048699        1.63497014331029       -0.47040472366799
N            4.47844404947655        2.19239052129008       -0.69776766350226
C            2.26549331700440       -0.41737301902871       -0.06615786213802
C            3.20985652615508       -1.42780302849217       -0.07947603076034
C            2.47131287254456       -2.61836741255606        0.07731314100490
N            2.96915831072468       -3.87308518647414        0.18021540089591
N            1.13828465176556       -2.40762101597012        0.17802496018250
C            0.97781376783180       -1.08278062664825        0.10455975417309
H           -1.16515957640670       -2.20812360851620        0.32986736316517
H           -1.97322005623985        3.52069022144574        1.38075107829361
H           -0.23707886694143        3.30550694824829        1.40887758451353
H           -4.99877942661336       -0.14163905970667       -0.91947380205060
H           -4.78484445762327        1.58631743228479       -0.88080107747156
H            2.09740922847664        3.42055107570864       -0.50726788174265
H            0.43521563592466        3.56044474638534       -0.69431096461474
H            4.27307096157783       -1.34209451285032       -0.18500810094399
H            3.91394075093779       -4.04481378948997       -0.11453275939772
H            2.30945952397395       -4.62975894910575        0.12684500624750
