27
 energy: -51.762064565183 gnorm: 0.000843592312 xtb: 6.6.1 (8d0f1dd)
N            3.04176245164918       -3.75999015736861       -0.06122205567641
C            2.70245562600452       -2.66490928192360       -0.07660429647626
C            2.31120335497555       -1.30557722101974       -0.08723202429397
C            3.29319084484240       -0.36940433153497       -0.45077196648518
N            3.28454612877017        0.91085686594729       -0.21960214032516
C            2.30823569269390        1.70502795451278        0.16929843358712
N            2.69916868083935        2.83401714200110        0.77353178853644
C            0.90202201834018        1.51714942229014       -0.09416367327002
C            0.09291993848631        2.62294425837107       -0.33376387026372
N           -1.22928448580901        2.61565942046995       -0.44260907664498
C           -1.83603794462359        1.46740851776626       -0.26220863269263
N           -3.16556673591492        1.27316981593769       -0.28742231293919
C           -3.35562704604403       -0.02397558168945       -0.09135239002381
N           -4.57406531497245       -0.57557567727850       -0.04259965539884
C           -2.11488545533571       -0.75498177135763        0.08394874412246
C           -2.04723102464876       -2.12410920233751        0.29959494072233
N           -2.04301134807599       -3.26297388218252        0.47631719854051
C           -1.11517036419205        0.20769031482983       -0.01461372349535
C            0.29637626276120        0.20356048126950        0.01804706778623
C            0.96709053091254       -1.01374946289493        0.15836544661634
H            4.21067071760727       -0.73890415284928       -0.89756405197403
H            2.03263755848505        3.53276479400804        1.05171169787642
H            3.68306838874302        2.99256833553000        0.91667106063921
H            0.54342907069973        3.59643206614493       -0.48705904494749
H           -5.37576066124687        0.01006367785146       -0.19331249784912
H           -4.68208660750668       -1.56838634041043        0.06609592293242
H            0.33433506645814       -1.87298911808237        0.35222867999263
