29
 energy: -55.235260140181 gnorm: 0.000378768699 xtb: 6.6.1 (8d0f1dd)
N            4.62846447837295       -1.78338103787343       -0.20556291795635
C            3.68431306557606       -1.13241057429165       -0.11354000547072
C            2.54500404654551       -0.31331983255662       -0.00865828765249
C            2.73650754892790        1.05501741291399       -0.32912450409034
N            3.85660944609089        1.41847612250761       -0.98011990021268
N            1.97252860545500        2.05726183263072        0.06948369868200
C            0.72023474704506        2.06328616528887        0.43638726000137
N            0.32148211542484        3.17013698849423        1.08170728656801
C           -0.28212534326168        1.05190825915393        0.14853426037049
C           -1.58993148933465        1.49224287257156       -0.09602900195029
C           -2.66632159580339        0.62835682644050       -0.26214418370841
C           -3.94766044662096        1.14681274329144       -0.54262451305898
N           -4.97276831826546        1.61009369202643       -0.76571319262762
C           -2.43345908799078       -0.73996940349020       -0.10866197158680
N           -3.24908301446453       -1.80661442882131       -0.14027455158734
C           -2.43895181249386       -2.83278044576404        0.08972467726351
N           -1.14461618180803       -2.54588202308488        0.27126001143453
C           -1.08711509726197       -1.19924934581987        0.15126913501084
C            0.01536206880635       -0.33573298579164        0.21601879892846
C            1.32848561750321       -0.94153263839001        0.33668377970124
N            1.34551154320638       -2.22570687343836        0.67761472700193
H            4.56249682785468        0.74000546676077       -1.20907105033614
H            4.03619088042692        2.39685675554882       -1.12140548631361
H            0.99882189110780        3.88971643194895        1.26819514958771
H           -0.62295893188172        3.27483937608533        1.40600263945338
H           -1.77298451058008        2.55178139549238       -0.21009768212910
H           -2.80052669773547       -3.84333656096605        0.13676847676059
H            0.42442509277490       -2.71948521041225        0.66213493184493
H            2.21540039688436       -2.73533784205562        0.65717139047222
