26
 energy: -43.235862470128 gnorm: 0.000942576783 xtb: 6.6.1 (8d0f1dd)
N           -5.70094790550952       -0.70589900607426       -0.02955276269414
C           -4.57701326838495       -0.46676740689491       -0.01777643227748
C           -3.19902716440561       -0.17147221701593       -0.00590940424597
C           -2.84940188863570        1.18985022540447       -0.00216351978055
C           -1.60672245846440        1.75994084720806        0.00641563829404
C           -0.29967809775015        1.19890084280949        0.00913277368553
C            0.75495014234698        2.12297738743902        0.01051385973887
C            2.09268172512555        1.76339462451575        0.00980695783275
C            2.40836370270315        0.42450879290563        0.00954988573017
C            3.61744525753782       -0.32556203802459        0.00700991288006
N            4.88161795305902        0.14700349513079        0.04968967431131
N            3.36570735793657       -1.64827823753737        0.00779176153975
C            2.04293763103124       -1.80144702847032        0.00983284575963
C            1.35611788835046       -0.56825662043115        0.01031138629459
C           -0.00125642386948       -0.21764391341247        0.00988362464406
C           -0.95029005691002       -1.26881781170295        0.01106141968919
C           -2.32088911311080       -1.26385718149090        0.00279842988706
H           -3.68978888241448        1.87518957605159       -0.00622001719296
H           -1.60858551092988        2.84413486829478        0.00917389326417
H            0.50571373278669        3.17429702119194        0.01158862921022
H            2.85714351599461        2.52810012485800        0.01162646858030
H            5.62250381138956       -0.51872807798316       -0.08833923656858
H            5.05689487352280        1.11208626608990       -0.16693473990088
H            1.63683560390356       -2.79640059093955        0.00687901954406
H           -0.50120533561496       -2.25322827994980        0.01736680907239
H           -2.80095818678810       -2.23622102687205        0.00267936420231
