33
 energy: -58.081423004208 gnorm: 0.000861928844 xtb: 6.6.1 (8d0f1dd)
N            3.71053195146875       -2.63761913863073        0.25197425084376
C            2.98040699418222       -1.75329120156074        0.16325541046254
C            2.12593992229761       -0.63897740039250        0.05046243902337
C            2.72919959467901        0.54523878512366       -0.46564603791586
N            3.90977501785729        0.40829063436125       -1.11340678807160
C            2.26676450551731        1.82336389433777       -0.18860504435498
C            1.03218572051833        2.24027761443899        0.31567936534212
N            0.99052762416125        3.46960589308887        0.86597562576019
C           -0.20121873432664        1.51637688681701        0.17892426524661
C           -1.42668823651557        2.24166091679489        0.00972832314563
N           -1.44193303355431        3.65601679998829       -0.06921467871165
N           -2.61021377219176        1.69555512969245       -0.08271130807498
C           -2.70667116779875        0.36951623755028       -0.10685760480744
C           -3.84073856406800       -0.42819874654207       -0.26491694001175
C           -3.41885451255710       -1.74534004844748       -0.35340221120779
C           -2.02007749819081       -1.81837802569618       -0.20726043538477
C           -1.28080405499734       -2.98528096396066       -0.35124547221351
N           -0.66349801109562       -3.95394144091022       -0.46385395840893
C           -1.53737891834323       -0.49071044670447       -0.02425730339929
C           -0.28806361375823        0.09365219546288        0.19562584652434
C            0.82570877367669       -0.77999213037165        0.53512628689727
N            0.54846683743652       -1.82241372116433        1.33183378967053
H            4.45359262032104        1.21816660178027       -1.35069063295094
H            4.33980831404045       -0.49774186973095       -1.18788472517441
H            2.98897019015902        2.61734874490355       -0.34615233186779
H            0.08911117500787        3.87732254801129        1.07676119027199
H            1.80958060106465        4.05209540265408        0.85224970771726
H           -2.40949893090241        3.94281464074342       -0.17917178864383
H           -0.89458045112865        4.00809305031485       -0.84746838655180
H           -4.84979769998236       -0.07397476060200       -0.34656795707315
H           -4.04983393733732       -2.60115623062499       -0.51788050860595
H            1.20894970154531       -2.58008221336222        1.41720083212537
H           -0.41136028768597       -2.02220713466222        1.56482244980000
