27
 energy: -47.759797044152 gnorm: 0.000556061981 xtb: 6.6.1 (8d0f1dd)
N           -4.67758936964716       -1.42462391842039        0.12935925689987
C           -3.55731813604235       -1.18158699561797        0.10122871161659
C           -2.17739117461951       -0.88198255745538        0.07205055287695
C           -1.24071908712561       -1.89362334300747        0.11950314185815
C            0.14470676897676       -1.63106094175634        0.08617886580279
C            1.00691184898345       -2.74917219049509        0.00903783999377
N            2.20484353116334       -2.82182530342970       -0.48785722654318
C            3.08204186067952       -1.86366348151635       -0.68812483959826
C            3.10337979425039       -0.62832113082858       -0.06515960826232
C            1.99690912435977        0.03419513899362        0.47656862401099
N            2.21623365928351        1.07346051129195        1.29141364041030
C            0.61537417707337       -0.27297432469433        0.14754651032371
C           -0.32611591430137        0.74624180328094        0.02117190696076
C           -0.21998336594579        2.16394581807209       -0.14663536565864
C            0.94193768307287        2.91481527123983       -0.29239509530562
N            1.91122707785956        3.52940483049155       -0.40276508916732
C           -1.51670773701802        2.67973744277911       -0.28257158674343
C           -2.44444718930747        1.64790558330211       -0.18869371916564
C           -1.74612021756404        0.45211573737328       -0.03535431037263
H           -1.56853385774285       -2.92228428709218        0.14812943049099
H            0.57598781584478       -3.71784920489872        0.24865479396358
H            3.93744711198730       -2.16588961118284       -1.28105698208220
H            4.05059006796874       -0.10777479745926       -0.00525354192407
H            3.14681049092226        1.44004930710875        1.40691011501451
H            1.45092957439989        1.65262720119571        1.59635828782021
H           -1.74170383588470        3.71879413582956       -0.44241673255774
H           -3.51168711992657        1.74643686709666       -0.25203572486256
