31
 energy: -49.033082669266 gnorm: 0.000468156577 xtb: 6.6.1 (8d0f1dd)
N           -3.92768916587817        1.78805804111432        0.31167693628768
C           -3.10836029800441        0.68834440086213        0.14889211818476
C           -3.75598277880513       -0.53155216046118       -0.11372073411657
C           -3.17373283672658       -1.77338192086062       -0.25019170790622
C           -1.84462377994325       -2.14062908516169       -0.16843542799740
C           -0.67410739673168       -1.37218266292388       -0.03945379928501
N            0.43224410498081       -2.11945611349339        0.00506511473829
C            1.64535427916038       -1.57330071323429        0.07261317138460
N            2.68901092261748       -2.46138543299157        0.15851337309406
C            1.82812449037001       -0.19600488252994        0.06305419049853
C            2.95980039577061        0.64443095662142        0.08964641704612
N            4.27990172088051        0.23353611376391        0.21021090643333
C            2.52130883552535        1.95759215410741       -0.09299297825683
C            1.12926786760056        1.97432297788719       -0.19683219703120
N            0.37000195338969        3.11950201117998       -0.39616588636646
C            0.65337360352101        0.64373627218034       -0.05912453354542
C           -0.62911703469097        0.08443448167719       -0.00470361773216
C           -1.74276338105194        0.92416606067481        0.18302734869229
H           -4.88928726014467        1.61410951143898        0.55153373372393
H           -3.52072589271279        2.60521893470158        0.73615558980224
H           -4.83643542761429       -0.48565068704673       -0.17663492872865
H           -3.86681930422810       -2.59093415748848       -0.41444131114120
H           -1.63485686283639       -3.20014533149074       -0.24077244420470
H            3.56081510558563       -2.16576067403252       -0.25014228414580
H            2.42011671764527       -3.41473075825431       -0.03313371969774
H            4.41271108397979       -0.54439456680302        0.84124309500151
H            4.91681989648036        0.99382666637610        0.40423956857658
H            3.15715092031627        2.82441073929551       -0.14834932648191
H            0.92769650443758        3.90885557199055       -0.69397304981647
H           -0.43837854566191        2.98019554603674       -0.98774390021852
H           -1.47961278963210        1.94641135266444        0.42510938490844
