29
 energy: -56.018711729483 gnorm: 0.000724177533 xtb: 6.6.1 (8d0f1dd)
N            3.69490847315149       -3.57671533627516       -0.00172689248639
C            3.00333831861406       -2.66121039359492       -0.00244670599812
C            2.15927398581290       -1.52237589022986       -0.00093423085311
C            0.81337496418832       -1.79576168494568       -0.00159391792154
C           -0.32924687325708       -0.97152453052088       -0.00096372874599
C           -1.55067627428397       -1.68866777747875        0.00025826748989
C           -2.79843129514697       -1.09784039278521        0.00065645895489
C           -3.97040447892635       -1.88665905237746        0.00185935536783
N           -4.90400430160074       -2.55081188163430        0.00489407170817
C           -2.85156340279422        0.30182636735174       -0.00082698397572
N           -3.87848965572521        1.15632910477062       -0.00137501846447
C           -3.29777630301985        2.35578915423924       -0.00333434609825
N           -1.96518303709229        2.36742598908081       -0.00413181191147
C           -1.61375578720073        1.05475914167799       -0.00252562332166
C           -0.34452622325725        0.46307241912694       -0.00213231133016
C            0.80303175991742        1.34632859090173       -0.00280690311249
N            0.52450803198375        2.64149056009252       -0.00596209299566
C            2.18336654376246        0.99035246129494        0.00039858468725
C            3.07209425549282        2.09245752014906        0.00312160053896
N            3.81246071610056        2.97157226597029        0.00370224075958
C            2.82523548785590       -0.25675063144743        0.00125561953597
N            4.17088837096277       -0.28634956005890        0.00406280330388
H            0.58949138437360       -2.85760030307512       -0.00252366783806
H           -1.50355853055813       -2.76835449839210        0.00109108286956
H           -3.86967345153219        3.26471675142553       -0.00428536286630
H            1.26468643986927        3.32573937733319       -0.00588103468313
H           -0.49113473641155        2.91385276081030       -0.00639825067651
H            4.65940074895374       -1.16678516372435        0.00448445744057
H            4.70416465536749        0.56759620011524        0.00560819822251
