30
 energy: -55.717090955956 gnorm: 0.000974147267 xtb: 6.6.1 (8d0f1dd)
N            1.59473113655834        3.51959605196354       -1.52887528411107
C            1.02598027674081        2.66402522686619       -1.01535063463354
C            0.18128641471946        1.65767667484254       -0.50353357246157
C           -1.15885542031692        2.00252669462606       -0.34656830111277
C           -2.05053131076472        1.04067061760384        0.07544803634880
C           -3.43840462306644        1.08157969488824        0.36709753341186
N           -4.22019330770922        2.17438716336094        0.38215918287546
C           -3.85200039736579       -0.24262204361027        0.66483296176663
C           -2.78377924885687       -1.09317771872086        0.53570908864571
C           -1.62947667355678       -0.33804447298877        0.16402755639745
C           -0.32415796211872       -0.71894884726721       -0.10937260124925
C           -0.00809980950244       -2.08275724027036       -0.43056779739191
C           -1.05959467250062       -2.93159932968032       -0.83885511124130
N           -1.84996827504760       -3.67152570206688       -1.22409119971641
C            1.24269680726219       -2.67154244703541       -0.53919220316473
N            2.41444177069421       -2.25896112759396       -0.10964482603489
C            2.74426426014753       -1.04639534720572        0.28700666566773
N            3.92819901451051       -0.97700261996346        0.92361979258618
C            2.03659824393365        0.17920900493478        0.02553363670937
C            2.82876193910273        1.32328818702433        0.24958960713870
N            3.56758746506643        2.15395160114930        0.54831294879949
C            0.66438657733074        0.34449788818510       -0.23126299999685
H           -1.45962946693334        3.02274261981561       -0.54117981653345
H           -3.85223050574213        3.06681862336715        0.10473807640259
H           -5.20849274112674        2.08492922767750        0.53762913516851
H           -4.85031292018565       -0.51945420679385        0.94870094191875
H           -2.80682124267671       -2.14927689955327        0.72314189892107
H            1.27454683910755       -3.67522129913079       -0.95381478183193
H            4.45951004888570       -1.82616626722230        1.01224876675183
H            4.35034262021110       -0.09248806409848        1.15054347306876
