31
 energy: -54.636553361940 gnorm: 0.000727622739 xtb: 6.6.1 (8d0f1dd)
N           -4.77952476028404       -1.59727607780480       -0.25816473260852
C           -3.82805397951659       -0.95272990565637       -0.18967798310723
C           -2.67586296099971       -0.14639040225314       -0.08162045000813
C           -2.93236270220331        1.19192972255820        0.27251818532644
N           -4.19704012179945        1.53404287384810        0.60481277391978
C           -1.98425857960084        2.23581785335955        0.22486269877465
C           -0.64568882642681        2.14645776152854       -0.00045516762548
C            0.22526016535056        1.03543001541061       -0.06977428182961
C           -0.12368512690709       -0.36578618768503       -0.05774443772774
C           -1.45017929297370       -0.81861256065044       -0.34794074373964
N           -1.58177105918704       -2.02550086075824       -0.93104620080609
C            0.91681806638932       -1.32165064196731        0.12138254721419
N            0.61970081216231       -2.68552005551450        0.30680521406650
C            2.26769987830390       -0.95442137954329        0.11202263686497
C            3.26143311562823       -1.92910317082759        0.32025402409287
N            4.06074299515144       -2.73505136398295        0.50296621688134
C            2.63744252085582        0.38242623188238       -0.07829578854291
C            3.82645971523033        1.09813644846324       -0.14928841776064
C            3.43545664588008        2.43721311635270       -0.23632069278964
N            2.10892216426660        2.61273121867820       -0.21612644663858
C            1.58043251740646        1.37781528239734       -0.13355139353418
H           -4.42597792234646        2.49722044422385        0.77378776670046
H           -4.94063354063598        0.85685353283217        0.58306673804302
H           -2.39283939073412        3.22853715851512        0.36768137875465
H           -0.09679847375101        3.07918768380386       -0.05758315971816
H           -2.49484345306586       -2.39839361312166       -1.13137762015409
H           -0.76293196083045       -2.59630417111245       -1.08111172027998
H            1.44651567246881       -3.22393151355519        0.53743656975680
H           -0.12665710706912       -2.86433395978767        0.96581848035773
H            4.82742441269180        0.71350278163415       -0.13457522366952
H            4.08317269884640        3.29326091793234       -0.31252461041314
