29
 energy: -51.206856281336 gnorm: 0.000892389713 xtb: 6.6.1 (8d0f1dd)
N            5.06964936872067       -0.77889729585605        0.09000558907529
C            3.93887641405008       -0.56263833929699        0.05675839452511
C            2.55840984775786       -0.31163862291402        0.01666793537525
C            2.14719789732852        1.03292595956424        0.03205105404750
N            3.10894258197757        1.98428058464142        0.08405590025123
C            0.81934622456430        1.49993652863761       -0.00892580698039
C           -0.39687537090887        0.84001796994549       -0.03225219906721
C           -1.57705725060005        1.64832822297864       -0.05446733771312
C           -1.45862152560690        3.05101265327382       -0.08965092596374
N           -1.38940453296995        4.19843522391121       -0.11851708796959
C           -2.86132384476313        1.11767286412156       -0.03480293911557
C           -3.02415656511262       -0.25493574774770        0.00733204748571
C           -4.16288319513825       -1.07998766836680        0.03341449207726
C           -3.73400092155498       -2.40761292139143        0.06011650018285
C           -2.34660682105486       -2.44477140795878        0.04974554212426
C           -1.86808872933903       -1.11401868058320        0.01738812509842
C           -0.56095982227815       -0.62285512014604       -0.01461373275199
N            0.39807924685042       -1.53979102164786       -0.03958196671838
C            1.70574604735621       -1.45884698484997       -0.04989484434698
N            2.31018717870829       -2.66649077906324       -0.12501618941149
H            4.08090344995076        1.72792763729965        0.10784771300256
H            2.86159985395990        2.95735214151326        0.08775543776720
H            0.74840985545783        2.58337201442063       -0.00827594506215
H           -3.71167518448370        1.78547626546065       -0.04957046483136
H           -5.18259233451813       -0.74067987104801        0.03093224402794
H           -4.38004622246106       -3.26668085187761        0.08435479108943
H           -1.72866586636829       -3.32207741938546        0.06449664003298
H            1.72069360975437       -3.47961693000945       -0.14367574681174
H            3.31006216582098       -2.76388046482548       -0.10537477841908
