29
 energy: -55.211443419041 gnorm: 0.000605557608 xtb: 6.6.1 (8d0f1dd)
N           -5.46403752130679        0.36389957739006       -0.26527898364265
C           -4.33007482676251        0.17830496101510       -0.19733960997152
C           -2.94866577007247       -0.06151775206537       -0.09973899351389
C           -2.56571941307315       -1.39370344500722        0.24476380067370
N           -3.47433564668310       -2.19640468470638        0.82601013109401
N           -1.42611178887835       -1.97759816143198       -0.07731668686378
C           -0.27406224247207       -1.44094708426827       -0.36259781277545
C            0.18021257571480       -0.13032923508275       -0.13146587634350
C           -0.66724677617736        1.03425209109221       -0.00937625255953
C           -0.05662808132326        2.25504746611304        0.29996886863356
N            1.23948100694835        2.47615193801965        0.44402619727258
C            2.05068887600044        1.46345159436761        0.23679487595883
N            3.39025678801743        1.50526408680209        0.27855940122017
C            3.80464897910409        0.25974988037223        0.06050922506613
N            5.10508883722790       -0.06132863051649        0.01972995749793
C            2.71794292427908       -0.66968614991744       -0.14135865860459
C            2.88325021757444       -2.02792174148717       -0.36685834762828
N            3.06958652474663       -3.15065601377855       -0.55179723701680
C            1.56301783899456        0.10614111924766       -0.04829770802090
C           -2.07876659362666        1.02530198796433       -0.29680456473943
N           -2.62975964710144        2.17564185579389       -0.72296822365513
H           -3.23288952246762       -3.16289156508458        0.96419114997937
H           -4.41767346822373       -1.88619350846412        0.98494401265645
H            0.46058489717450       -2.15948650813728       -0.71338955677310
H           -0.66394228705082        3.12842660586617        0.50761843688934
H            5.39184225588041       -1.01620280362581       -0.10035114730516
H            5.78297663899491        0.65708268967967        0.19911645655927
H           -2.06301896213929        2.99114093986419       -0.87174967027641
H           -3.62495974359615        2.23584818378149       -0.86552756291333
