29
 energy: -53.634000894620 gnorm: 0.000343296225 xtb: 6.6.1 (8d0f1dd)
N            4.01441801416812        1.76646233265379       -0.74861126265117
C            3.02364314869727        1.00219180569527       -0.23332398332541
N            3.39313149203083       -0.23924025876776        0.06495700758614
C            2.54423574223168       -1.22574960539039        0.34398440798887
N            3.15251763670742       -2.35349689717076        0.79619069189473
N            1.23603051646420       -1.33410880389854        0.18455471756236
C            0.37814954740691       -0.30767700983327        0.04970814154391
C            0.68278731291237        1.13753562917894        0.13915729748707
N            1.88535472045596        1.65938377338309       -0.05884467323100
N           -0.27888549793169        2.03230246433485        0.34299561224267
C           -1.57045115969661        1.71996787224914        0.29175700236068
N           -2.44273948219376        2.74229875452644        0.54330071120006
C           -1.98126652117989        0.43400747471026       -0.06063800478794
C           -3.19577098979820       -0.27059131886211       -0.23612337678598
N           -4.45489086736743        0.24680405875520       -0.23243636804736
N           -3.00314751969863       -1.60091097690232       -0.36035594025554
C           -1.68059420501281       -1.80376616556337       -0.28852848237841
N           -1.07576077801052       -2.99403629763370       -0.38039572115164
C           -0.96550455375795       -0.57729034638631       -0.12626373153627
H            4.95037622936686        1.40385128023206       -0.75199912618943
H            3.84710989133899        2.75314681953636       -0.82947304435038
H            4.15442299840971       -2.39186301243679        0.74696964579572
H            2.62393776980740       -3.20561815457519        0.83897007651804
H           -3.35302463535644        2.49975317348213        0.89800645093733
H           -2.00919289018694        3.56191100393278        0.93949006829436
H           -4.55822115231691        1.19321868581276       -0.56207772920104
H           -5.16890517452292       -0.40078139425498       -0.52846648115116
H           -1.61657117522202       -3.83875793176672       -0.32295000058815
H           -0.08679388854458       -2.97450776774080       -0.16636587388151
