29
 energy: -51.198018619724 gnorm: 0.000725105873 xtb: 6.6.1 (8d0f1dd)
N           -4.35429011108108       -1.32608995394848       -0.27004558831934
C           -3.46216860477193       -0.60662838817313       -0.21008589508773
C           -2.41084414435077        0.34218187958748       -0.14601535129398
C           -2.78304058204663        1.65127360599365       -0.40431725652494
C           -2.01959404174990        2.80392037262292       -0.29718692042258
C           -0.69567412555710        2.88337600331128        0.09821141848107
C            0.24243738867152        1.86890135489638        0.26116632402989
C            1.45557302398311        2.32303955259137        0.81090903884207
N            2.42224469470692        2.73010980697648        1.28623287098504
C            0.14490505284725        0.45967547296683        0.01652214369039
C           -1.12974732333535       -0.24656280431052        0.09500937335849
N           -1.20287029732085       -1.54102485005675        0.33437642833379
C           -0.10887167998288       -2.31390384860339        0.38241913652077
N           -0.31967104818076       -3.59662057395631        0.73452853197585
C            1.13588750260320       -1.78997180116136        0.04181559724256
C            2.39700159403839       -2.37249876335976       -0.15658709833658
C            3.28435995518672       -1.37840604622403       -0.52690525962840
C            2.62951665770894       -0.13647558170961       -0.54039110643107
N            3.20378338578787        0.98603307075790       -1.03869156865674
C            1.25806125843786       -0.35911839545133       -0.16031360436757
H           -3.82576437744781        1.78845944681121       -0.66690546355586
H           -2.52815752836424        3.74171646812087       -0.47341041297125
H           -0.31938262468840        3.88137774190167        0.29801735987776
H           -1.27238779800903       -3.89547182239886        0.85025364175359
H            0.41658160725098       -4.27401983037397        0.66839301669253
H            2.63392479175988       -3.41604555243363       -0.05422616863030
H            4.31987048793748       -1.51825502215085       -0.77772380180925
H            2.83672412590487        1.89355508539410       -0.80795283132473
H            4.20120895486224        0.94525081787974       -1.17247489432347
