28
 energy: -45.883806919341 gnorm: 0.000496910092 xtb: 6.6.1 (8d0f1dd)
N            2.77320593452545        1.53880901036695        0.96039363518098
C            2.18262853804445        0.50449812006414        0.32628041347564
C            3.00837300405360       -0.56530690596785       -0.02413455429591
C            2.62593940756801       -1.79770887261024       -0.52529559991821
N            1.47027084115720       -2.40056963636070       -0.44468617248374
C            0.32665034761275       -1.90280983968160        0.02300302236645
N           -0.58248545264983       -2.80687523333578        0.36764986297241
C           -0.09548752565119       -0.51431318199059        0.04502021373578
C            0.77502423537484        0.61959701714215        0.02611519309032
C            0.20773033042335        1.91313788694107       -0.17089770837179
N            1.05524242876587        3.04689797372925       -0.31835178214050
C           -1.15515538983591        2.11646394827638       -0.23280369604337
C           -2.02626129577036        1.04783480782435       -0.06633789823804
C           -3.41575328715313        0.88223262602951       -0.01823263417753
C           -3.62115990788923       -0.47935949239040        0.14667173120868
N           -2.47706436842000       -1.17850915752156        0.20881315251719
C           -1.47587281522835       -0.27699203008060        0.07390251725412
H            3.76626037054201        1.52372576685246        1.11429209254542
H            2.26108321206266        2.40130769489521        1.07659986269061
H            4.07342473367986       -0.39212028730208        0.07609989995358
H            3.40209907480621       -2.41827246685386       -0.96567413758242
H           -1.57450283384359       -2.44886995069674        0.42243380543433
H           -0.34510116963944       -3.77452551030190        0.21682667724293
H            1.77750684064775        2.90353880767009       -1.01518415309458
H            0.50999795697010        3.86574070026658       -0.55981124881920
H           -1.53866588270865        3.11543398489871       -0.39862931185962
H           -4.16741975701638        1.64477462842261       -0.08543332492492
H           -4.56313384932803       -0.99271384858550        0.23752001538134
