28
 energy: -51.480912447737 gnorm: 0.000909003185 xtb: 6.6.1 (8d0f1dd)
N            5.49541676053495        1.67071211780295        0.56655341085570
C            4.42936044109622        1.25782927469201        0.44078480904301
C            3.14181223996285        0.72615812284263        0.26478109961260
C            2.04495981410986        1.51881156444081        0.58372143929506
C            0.69939486198006        1.24568813331827        0.41508779267307
C            0.06956874484772        0.02224646977009        0.14349682351184
C            0.79000373826899       -1.26416425669034        0.17990639952086
N            0.17664101872495       -2.40049826420247        0.50316025048850
C           -1.13873827899267       -2.45985617967465        0.57447837148164
C           -1.94598477622336       -1.38779392074381        0.23387013775980
C           -3.33902516809833       -1.22113271333304        0.13555445888117
C           -3.59376698725395        0.11373635718447       -0.16845571710356
C           -4.83747806908985        0.71035307814773       -0.39200796331125
N           -5.83632281751581        1.24238414937916       -0.59485376981049
C           -2.35636389717765        0.82411784298432       -0.25222636474693
N           -2.25566607280608        2.14307550884108       -0.53834893007301
C           -1.31822252591011       -0.10235047372430        0.00777518276253
N            2.04832413915758       -1.41086749757875       -0.18426366845152
C            3.04729018565724       -0.58512102837811       -0.32172766510035
N            4.10406091417118       -1.04731354888239       -1.01930163879719
H            2.28585201460885        2.50877291039042        0.95464995273140
H            0.03077848915974        2.06827211012537        0.63730439992573
H           -1.55081923281177       -3.41432305049278        0.87669385813092
H           -4.08013917186223       -1.98706883153292        0.26662140486491
H           -1.37837394169800        2.50742461711905       -0.87046274180316
H           -3.09272264640947        2.61552836521723       -0.84303044938411
H            4.97410276133305       -0.54247510398924       -1.02602381374553
H            4.08127563154437       -2.00455165954695       -1.32752681432527
