30
 energy: -54.948672077473 gnorm: 0.000471981258 xtb: 6.6.1 (8d0f1dd)
N           -5.59805628557707        0.80559260258477       -0.08844086441937
C           -4.47114144652944        0.58856250676159       -0.02546547764496
C           -3.09865524090725        0.28289969273662        0.03785886980375
C           -2.20626221310375        1.30818590389702        0.28426441980354
C           -0.80124056538703        1.32188725361183        0.23485875917742
C           -0.19733993179258        2.60239080581595        0.18041890080482
C            1.14898985205129        2.78786228532189        0.00790565538118
C            1.97380698097675        1.66942351679281       -0.09724768793035
N            3.29440429874038        1.63472713505792       -0.29490640277350
C            3.63612264463453        0.33575014181947       -0.32117299606937
N            4.92294738596658       -0.04701873637001       -0.47594333318271
C            2.52951015362224       -0.52820979804394       -0.10482948520467
C            2.60010239637320       -1.90952135659949       -0.14064346331383
N            2.68656535971493       -3.06111178414644       -0.16184039100960
C            1.41058592706075        0.33500667781290        0.04529157249100
C            0.04480848752749        0.15785421823454        0.24487314962812
C           -0.49632966889402       -1.13741625908068        0.60056839417680
N            0.22168924278198       -1.92717490215083        1.40447523435855
N           -1.63061459516856       -1.64768472389387        0.17478073645922
C           -2.72662088527012       -1.07591654160136       -0.25110496809450
N           -3.59768100711747       -1.85627631786563       -0.91134845319323
H           -2.66663496053295        2.28059878908265        0.42503288335954
H           -0.84660058046724        3.46441583253306        0.23300407864357
H            1.57577531569972        3.77551474478414       -0.06372082958481
H            5.12029856474672       -1.00851025086367       -0.69336999230023
H            5.57390023367996        0.65619492800498       -0.77909309606906
H            1.17188347427653       -1.69029307384984        1.63632440105023
H           -0.07820033278271       -2.87838106351007        1.54248204375268
H           -3.36253033240145       -2.82046438739271       -1.06989498188500
H           -4.50880588912200       -1.51186064448354       -1.16124047691502
