28
 energy: -51.495868295241 gnorm: 0.000739204100 xtb: 6.6.1 (8d0f1dd)
N           -4.65167892772619        2.37985435614179        0.00016131899417
C           -3.94805518575747        1.47188492063510        0.00009019781885
C           -3.08396693799624        0.35118916352758        0.00025041563289
C           -3.73905170342351       -0.87469246480291        0.00197113511585
C           -3.20308499612692       -2.14968750882122        0.00443206299349
C           -1.86828244307970       -2.50912093659519        0.00656622029985
C           -0.70408452760770       -1.73574827033968        0.00317170470713
C            0.50943786536298       -2.49055569240508        0.00643109533407
N            1.72314816446699       -2.02507842772457        0.00350696490564
C            1.84538074784670       -0.69622139079582       -0.00447241930432
C            2.97971773766646        0.12140370150692       -0.01088873112158
C            4.33063438858168       -0.20697082542023       -0.02027304993392
N            5.46391992185575       -0.40533110661940       -0.03578480281293
C            2.47054949562184        1.45870993335747       -0.02200399927030
N            3.22065183935970        2.57552688766383        0.00535201474331
N            1.13579325459519        1.49500286717468       -0.02311923944541
C            0.70649942189160        0.20150415332732       -0.01038784490701
C           -0.59770634859255       -0.29285580498659       -0.00453870014942
C           -1.68979635069176        0.65334821923538       -0.00342021036288
N           -1.34864542423508        1.93460645059461       -0.00656385868027
H           -4.82126463603494       -0.80946935198495        0.00208505376505
H           -3.91659082953145       -2.96253974112750        0.00603418472951
H           -1.68781495571278       -3.57802132885073        0.01113942738419
H            0.43674317305114       -3.57092570448263        0.01188807401775
H            2.77815834333118        3.46711225429624       -0.12753963226833
H            4.21462562119541        2.49749881677772       -0.11916318958991
H           -2.05960497045550        2.64961227283264       -0.00246878966180
H           -0.32843744215480        2.15116259158520       -0.00918513983369
