29
 energy: -55.997981585865 gnorm: 0.000620093098 xtb: 6.6.1 (8d0f1dd)
N            5.32938219440895        1.42153619214505       -0.55323064144282
C            4.26423091143235        1.04009929938347       -0.36386838225367
C            2.94570316477706        0.57915059029199       -0.14436166808975
C            2.73577281030939       -0.79934668891911       -0.23667457142722
C            1.56953121249317       -1.50394954194170       -0.01816522988164
C            1.69981509844872       -2.91735048304639       -0.06049719885531
N            1.85933088408170       -4.05237027318917       -0.09508210861997
C            0.21512212472730       -1.06757516892843        0.15083247042196
N           -0.61477213910530       -2.08259032314043        0.30866439015270
C           -1.94254842930279       -1.93057268803647        0.28179948888214
N           -2.66732572100865       -3.02824349768316        0.53256850256173
C           -2.48617208086733       -0.68262188448075       -0.04144107668657
C           -3.76991273514610       -0.21039835636224       -0.33334752519038
N           -3.76571014669224        1.08627429210239       -0.62993133751616
C           -2.50498141352464        1.53615988621676       -0.50913519297899
N           -2.24423589609435        2.79060794458008       -0.90187745729713
C           -1.60688712099361        0.46371733116420       -0.12180803609448
C           -0.24128067794617        0.31403432959191        0.09378408577828
C            0.63412058082272        1.42351958178647        0.36552556549138
C            0.02467570950874        2.57752847979196        0.89366201383297
N           -0.44567574889637        3.52632821295506        1.34409579450030
C            2.00448384139327        1.54344230310649        0.23079940729415
H            3.61358418695943       -1.39711170593035       -0.45728083343532
H           -2.17551164027631       -3.89103385060715        0.69265345057952
H           -3.66801055483581       -3.01991900161938        0.45982040002852
H           -4.69109057769314       -0.76405329434695       -0.35493096147363
H           -3.06569956192372        3.32901393374836       -1.13271953182650
H           -1.44066106454874        3.29768273639590       -0.56857968179345
H            2.40716312239250        2.53019203117152        0.43725438093932
