37
 energy: -70.577075446689 gnorm: 0.000749346238 xtb: 6.6.1 (8d0f1dd)
N            5.18911497418483        2.02120992121066        0.63545174848772
C            4.21396524195169        1.45287363324207        0.41117673419992
C            3.01567183413038        0.76439890078626        0.14413914212187
C            3.01728304330018       -0.60925906246526        0.44791171113984
N            4.04635882140311       -1.11333475417700        1.15536129309672
C            2.08134510299677       -1.52546802597504       -0.10306199349480
C            2.52029424798474       -2.86282840110913       -0.18481584470406
N            2.90411580802272       -3.94428696419953       -0.25152989898911
C            0.80945683384706       -1.24342939804580       -0.61123553642115
N            0.22346424996982       -2.15373953143444       -1.39820310766243
C            0.03613011069154       -0.05513830429949       -0.29494736059097
C            0.58621127860864        1.26945498412455       -0.29872389331859
C           -0.33182991857610        2.35926196094349       -0.15372553006340
N            0.09979469482253        3.69176750735790       -0.10460905301594
N           -1.63187626571186        2.22295069547976       -0.05070956620228
C           -2.14929438354615        1.00424642537044       -0.01181692806569
C           -3.49145531951274        0.62823996976239        0.14780349289864
C           -4.60504187307084        1.45693110669745        0.25311688639241
N           -5.55624929416429        2.09720997829975        0.35124864427612
C           -3.52805159689958       -0.78694647490873        0.24753422724581
N           -4.64740693335475       -1.52859078842218        0.40229125832117
C           -2.21873438461071       -1.29735465319470        0.10054563624417
C           -1.90649785512170       -2.64087219210834        0.25446057938469
N           -1.66723036796445       -3.76275577273587        0.38221975605360
C           -1.33454387844436       -0.19337784217579       -0.08666418763817
C            1.97966450004900        1.54874187212259       -0.43197356656585
N            2.35575586748826        2.69190894817106       -1.02739629086508
H            4.14514515084389       -2.11013057901715        1.25676600344180
H            4.81178959305694       -0.51972280737554        1.42964821589474
H           -0.73814750500096       -2.03113438291599       -1.67186609487776
H            0.61524554441498       -3.07964583398104       -1.48251598144087
H           -0.70732081708644        4.28310638893706        0.06056813412508
H            0.82584499298678        3.87463772042861        0.57721972175288
H           -4.55846052444785       -2.50372921496751        0.63226468279057
H           -5.50526718337267       -1.06012659834576        0.63896178810283
H            1.64727078040522        3.34097068989152       -1.33850625344943
H            3.32360188312693        2.97052025232832       -1.02513928470506
