28
 energy: -51.490902527067 gnorm: 0.000713212576 xtb: 6.6.1 (8d0f1dd)
N            6.03255881410100        0.98705950093489        0.00364868031229
C            4.92206002398235        0.69370817755311        0.00256199782217
C            3.56982846372555        0.32922267938148        0.00101038822926
C            3.08957552198401       -1.00343109864799        0.00021060641323
C            1.70397877514745       -0.94528313098193       -0.00081109845730
C            0.68830125175162       -1.92579380699079       -0.00219190025407
N            0.94828715179837       -3.24011901594133       -0.00338410278157
N           -0.59644558592973       -1.58520962963615       -0.00228659897770
C           -0.99340332950322       -0.31351647855307       -0.00155187682641
C           -2.39567705197642       -0.19073191101940       -0.00016413895466
C           -3.07600192453756       -1.43067393698809       -0.00004052242394
N           -3.70115298048233       -2.39502050642149        0.00262618933573
C           -3.22825664250330        0.96593387831584        0.00081909175702
N           -4.56294402536508        0.77671809987401        0.00470335246402
N           -2.88464042075698        2.24689779488496       -0.00228125368334
C           -1.66790786261922        2.74631826505772       -0.00468313643539
C           -0.41528283200306        2.15782230835242       -0.00347930068789
C           -0.04811298415286        0.80670826400100       -0.00168193938524
C            1.30626860045282        0.44220727838785       -0.00073277172058
C            2.49016781670476        1.20949059694052        0.00033557335553
H            3.71080958928696       -1.88045375265534        0.00044368291214
H            1.89151708254440       -3.58219343024237       -0.00288194003823
H            0.17146792238178       -3.87879796794528       -0.00407309907182
H           -4.96406314198083       -0.14503787029413        0.00630061650583
H           -5.14971498487061        1.59259260319543        0.00450059156153
H           -1.68148008006941        3.83318797009439       -0.00758698888067
H            0.41296932221321        2.85362468488975       -0.00459807666707
H            2.57188239187633        2.28016720465403        0.00082564497712
