28
 energy: -45.875337623595 gnorm: 0.000743361931 xtb: 6.6.1 (8d0f1dd)
N            4.24221189785019        0.58298061724099       -0.76346804449834
C            3.03883366046390        0.27376151200362       -0.22795961963449
C            2.78869900248914       -1.06667982192229        0.15984837797649
C            1.55320211902463       -1.61707267382085        0.35591325854010
C            0.25976533190095       -1.08356316045582        0.15128653207599
C           -0.81981148838310       -2.01534907310785        0.08082702995089
N           -0.56035586243725       -3.39313392312509        0.16412351835235
C           -2.13095275597231       -1.59845595266461       -0.03772963232020
C           -2.42728838055776       -0.24709250120849       -0.13959616049306
N           -3.61786286174689        0.33373661834813       -0.30297705518355
C           -3.36280185966485        1.65257040770969       -0.39381775623023
C           -2.02273201688829        1.97180270327692       -0.25413054291351
C           -1.35425568320235        0.73925886561828       -0.08404377766265
C           -0.03381794562491        0.32652498657919        0.09810514065078
C            0.98232206830891        1.31175967027494        0.37433860908156
N            0.59667082763820        2.44485776662056        0.98165419357104
N            2.25201210007377        1.29474685406851        0.01889643473932
H            4.40894285734706        1.52821839894587       -1.05827848110243
H            4.89529825136947       -0.13711622393448       -1.00899230252591
H            3.65484977059949       -1.70710673743277        0.26329585157781
H            1.56283946821663       -2.66031778397610        0.64487666572230
H            0.18824376816458       -3.72544726716412       -0.42610813851348
H           -1.39982857805647       -3.93835228446080        0.02277148287839
H           -2.93109977461963       -2.32372253370096       -0.08100079300798
H           -4.17525009604901        2.34140473730780       -0.55429531972518
H           -1.60640093769701        2.95816269966358       -0.35296629628462
H            1.27726525520420        3.16380810586138        1.15262173499967
H           -0.36302382645097        2.56127246535471        1.25941629327962
