30
 energy: -54.932348116839 gnorm: 0.000785116400 xtb: 6.6.1 (8d0f1dd)
N           -5.35133219535438       -0.81312044747829       -0.81843429162784
C           -4.30015146525976       -0.40639192771155       -0.58795686499625
C           -3.01434510051442        0.06133743888162       -0.31443096593895
C           -2.66246050711575        1.36387164935320        0.06566946698133
C           -1.27623475523257        1.42768856020097        0.19103576174274
C           -0.42870217812360        2.50210550078315        0.51839066886799
N           -0.92394484954717        3.71207361198644        0.85952440390470
C            0.94875101064474        2.29874321649959        0.42041374907023
C            1.50131723347954        1.06889473994910        0.09062956175489
N            2.77319758901226        1.06849563075342       -0.30063707892101
C            3.60378917092374        0.07536966015001       -0.48184284358961
N            4.66530962339595        0.30965652815336       -1.28146953049712
N            3.62833586357303       -1.12753753922322        0.13190534598090
C            2.55980487553531       -1.71606485416150        0.58013847178429
C            1.19771085917778       -1.37838657890105        0.44694915723200
C            0.34178018120127       -2.37380177399447        0.95006809779411
N           -0.31685125792349       -3.21897657852863        1.37099757997888
C            0.63516033958091       -0.12492918961580        0.08325197798880
C           -0.73106965532306        0.11001750984577       -0.05289548900120
C           -1.84241826053771       -0.73119261708363       -0.39541125544272
N           -1.83878493564694       -1.97607872255238       -0.91300209475821
H           -3.36704274863571        2.16080321766020        0.22301070894285
H           -1.91040148127230        3.88611493451296        0.80140573609562
H           -0.30164300290177        4.49113670948912        0.97701907473882
H            1.62251517607460        3.13468269063513        0.52969513835841
H            5.42088794536202       -0.35189517408376       -1.27408475973774
H            4.81065197851714        1.23851585503646       -1.63455350262290
H            2.76370843365701       -2.65665051756406        1.08671807640529
H           -2.73836503995547       -2.41211519761440       -1.04492949855021
H           -1.06123767908999       -2.59435712647873       -0.75615988293909
