33
 energy: -52.475069908690 gnorm: 0.000636384197 xtb: 6.6.1 (8d0f1dd)
N           -4.30385756521289        1.80929131805132       -0.35666406461196
C           -3.19632895317868        1.01595427501988       -0.16149376346245
C           -1.96581740338758        1.66054690236513       -0.07004239126069
C           -0.65968700982343        1.15684185298760        0.04576860630501
C            0.37814476197158        2.08789704542208        0.11452070629056
C            1.72905616850736        1.74957188382668        0.14118369422573
N            2.69088382207351        2.73364054792262        0.24364044381764
C            2.06805370303264        0.40049051814325        0.06276468424829
C            3.31012617836950       -0.27116294474651        0.02917905133155
N            4.56396475414805        0.31621024469015        0.15366517654866
C            3.06398932032254       -1.62461385496912       -0.20644131134128
C            1.68693426053790       -1.83431714249142       -0.28030539662248
N            1.09679723835462       -3.06327468631222       -0.52333562795227
C            1.02761486501049       -0.59016978439742       -0.06822437192889
C           -0.33104352777546       -0.26371125558041        0.04074297683348
C           -1.27520338082085       -1.28027931280277        0.23480875164872
C           -2.67022290428942       -1.24549124847769        0.26580703189822
N           -3.30914617811750       -2.44537777081818        0.48461290727020
N           -3.52255463363506       -0.26062434196046        0.01536538416177
H           -5.14921902613591        1.31329607510461       -0.58389686790388
H           -4.17906200653477        2.71329438913476       -0.77755894016393
H           -2.02894583475928        2.74198975353552       -0.13482429289558
H            0.11897610556962        3.13889947147800        0.13413809650173
H            3.57526829335722        2.51539130546366       -0.18831550869160
H            2.36368813360068        3.67021126014327        0.05868198841527
H            4.60732203378655        1.04101599160065        0.85729487795609
H            5.30312631432506       -0.36366852985162        0.27237446694445
H            3.81643096955255       -2.38611418456594       -0.31802190918303
H            0.23985638271121       -3.01606184120230       -1.05760019522186
H            1.74506109810553       -3.74794302183178       -0.88828280306456
H           -0.85872436666694       -2.25559896139837        0.44509684737687
H           -4.29405301883642       -2.37366294483003        0.67842712605935
H           -2.80491568336270       -3.17107637494980        0.96438077407020
