34
 energy: -62.610458832987 gnorm: 0.000967005512 xtb: 6.6.1 (8d0f1dd)
N            5.15597270449431       -1.77917319418477       -0.44426698167235
C            4.07500793690720       -1.40771899947589       -0.29529971454788
C            2.75213590290095       -0.96594426436369       -0.13726553766367
C            1.74211920180186       -1.94397071239794       -0.32810799846261
N            2.17064378628780       -3.20467342531653       -0.61956792270446
C            0.37215840812036       -1.78158679763351       -0.16563667784559
C           -0.42225114687668       -0.64022207700545       -0.00457925401732
C            0.05358666183911        0.72360059704376       -0.05873571962963
C           -0.87104513521081        1.75120572999210       -0.36517278219315
C           -0.42903857984761        3.02732716924147       -0.77127578731848
N           -0.16751499139997        4.05407606500338       -1.21592824169164
C           -2.25826062542905        1.54565917120878       -0.39845514838170
C           -2.72622406351664        0.29822969853497       -0.08641709971232
C           -4.03589346853023       -0.27368761141716        0.06609350953181
N           -5.20610951844829        0.36095293140405       -0.08376078422758
N           -3.96718617878070       -1.56482282403840        0.39097563955590
C           -2.65640419908846       -1.89265919557659        0.44413608467579
N           -2.30674207222310       -3.15887492473023        0.77676405144882
C           -1.81530670478380       -0.79067968453810        0.13228090616293
C            1.38045907510498        1.11429317726814        0.27469340278870
C            1.51741869578683        2.42504654983976        0.77888174065418
N            1.69766810604250        3.42857458961960        1.31402477184277
C            2.59039865833996        0.38466095828380        0.25114638815526
N            3.71862535577064        1.05034073768736        0.59160580464957
H            1.50255692457561       -3.89983884448001       -0.89985142605949
H            3.13799228448204       -3.36023012603720       -0.84642363667735
H           -0.19124423723268       -2.69487112279807       -0.30784083510581
H           -2.90876774809639        2.37205070744350       -0.64588791541385
H           -6.05540766594755       -0.14417282383816        0.09486850163092
H           -5.23457685269692        1.35002670958797       -0.24887923413097
H           -1.41657977694116       -3.29797067512509        1.22802185029652
H           -3.07246044678124       -3.72471366318431        1.10945653854249
H            4.61196364865132        0.59287885471139        0.52993878269551
H            3.68217230512551        2.03281014697107        0.80455421372471
