32
 energy: -53.561198556900 gnorm: 0.000700602688 xtb: 6.6.1 (8d0f1dd)
N            1.48600718039567        3.76021823949404       -0.13771385038277
C            0.97102393047943        2.73042463400718       -0.13497005011017
C            0.26773552064512        1.51624091523542       -0.12985109033798
C           -1.14870032493724        1.55886522409142       -0.13824447484561
N           -1.79149412789338        2.76387780237911       -0.23269306675771
C           -1.82721188424095        0.35425736344670       -0.03259940279155
C           -3.20917114796854        0.04165426795625        0.01180831031564
N           -4.25145162967032        0.94334903989812       -0.10074784873902
C           -3.33777934159839       -1.32937807587024        0.23292065175821
C           -2.06867175983707       -1.91087605562191        0.27564526625999
N           -1.82807668966341       -3.24994967311520        0.47619728831831
C           -1.09729695246367       -0.89123479521976        0.06786538358378
C            0.29047661981797       -0.95452888861972       -0.08452429573905
C            0.92449892106295       -2.16102447434578       -0.43829304278625
C            2.26950414171392       -2.44019878806106       -0.61245522611642
C            3.36830599451827       -1.65718334729623       -0.32069445338697
C            3.31635516895396       -0.34273971842891        0.18996874264779
N            4.45584068965242        0.18601443674316        0.71825227178566
N            2.30195759982108        0.49350037503109        0.18641802839595
C            1.00638134544952        0.31907246922280       -0.03267743031277
H           -1.20724637684002        3.58071637332154       -0.12751732230634
H           -2.70086656568704        2.82323551755158        0.19589524359063
H           -4.10194866668900        1.67790726528261       -0.77779986163703
H           -5.15430951022321        0.50170823432320       -0.20408499871572
H           -4.26734208193866       -1.85875992618659        0.34555665408458
H           -0.94158340808077       -3.47555049809631        0.90234722306653
H           -2.60936576019282       -3.76264454338708        0.85737152216137
H            0.24928538447825       -2.95969310063398       -0.71386300916903
H            2.48970824672423       -3.43244149647431       -0.99063794853724
H            4.35100245766037       -2.08939773424333       -0.45480927507705
H            4.44201475668089        1.17324464722314        0.91064966279652
H            5.34149973656930       -0.25114063960752        0.53592488768490
