33
 energy: -53.271304186583 gnorm: 0.000755492614 xtb: 6.6.1 (8d0f1dd)
N            5.07455663049240        0.74812250530735        0.60656625188866
C            3.98791526093604        0.42485679805880        0.39426910543438
C            2.66769506863000        0.01636155557967        0.14669106977064
C            2.41872109134168       -1.36361719611757        0.30919916102057
N            3.39546204641961       -2.12246416191262        0.87786802562025
C            1.29721007097870       -2.01966019671365       -0.19293122440262
C            0.07514774592619       -1.49229388881210       -0.57727186124337
N           -0.75400951796847       -2.30918998954810       -1.26254282569760
C           -0.44918005652747       -0.18850580968639       -0.24485422334161
C            0.35820557024212        0.99889606454767       -0.22278014586307
C           -0.29422847170893        2.25224547030698       -0.10324848526014
C           -1.65053052818859        2.38503922089299        0.04406713810319
C           -2.45259820602754        1.25129890420780        0.09078400151855
C           -3.81353845964406        1.07467822862342        0.29177710783484
C           -4.06000735673739       -0.30729382166893        0.34021173569568
N           -5.30644353157251       -0.89023820764988        0.48866201672674
C           -2.86827627738507       -1.00216547812933        0.12757739504358
C           -1.83208790750305       -0.06468014462399       -0.04179800670884
C            1.77968768025984        1.02240560545307       -0.31221446237247
N            2.38087106477235        2.14881885526894       -0.77277676549351
H            3.33542434195682       -3.12318384335850        0.82168617587849
H            4.29473463341403       -1.71341652893642        1.06729245950308
H            1.39670659725919       -3.09506916444880       -0.29532263546712
H           -1.65991137749431       -1.96872995368413       -1.53576043275269
H           -0.49243529073590       -3.25736192647692       -1.46328978526212
H            0.29905815811110        3.15303340247406       -0.03473781495353
H           -2.08823567517766        3.36665568673822        0.16222950518013
H           -4.54707703363895        1.84912921998185        0.42180604415414
H           -5.99757000402259       -0.30121612388259        0.92774572870496
H           -5.29717675448598       -1.83235433389619        0.84952339816840
H           -2.78575272474240       -2.07314695264824        0.19538200371987
H            3.37320071916124        2.26783889300460       -0.65659213981933
H            1.83130775161669        2.94150037883657       -1.04868596433644
