28
 energy: -46.672053364874 gnorm: 0.000772744400 xtb: 6.6.1 (8d0f1dd)
N            3.25539090574963       -2.94930451667346       -0.27020527527564
C            2.83644091473031       -1.88134608926439       -0.18834193298380
C            2.37727396683299       -0.55113521264033       -0.07431849259791
C            3.39138963078039        0.39701404330156       -0.21076907355704
C            3.31592738981729        1.76859991448705       -0.07193511307649
C            2.16723447246533        2.49948020538256        0.25688587542450
N            0.91544445785890        2.15505675855527        0.29017622913230
C            0.33431750946554        0.96283187004176        0.11087352306745
C            0.96861375719938       -0.36206621688644        0.08572476133799
C            0.16441189912970       -1.48751554070459        0.16729931634640
C           -1.23951883301179       -1.45688134992605        0.14941101983543
N           -1.94279983092852       -2.62219555134661        0.23904514258629
C           -1.85803771849047       -0.21904065838709       -0.01651731169938
C           -3.20472303920068        0.18582759236265       -0.13396887625031
N           -4.30722345792049       -0.63350623700988       -0.21016202549852
C           -3.23299774575503        1.59831311843548       -0.13024644434722
C           -1.94680905248581        2.07911563051465       -0.03884542566051
C           -1.05459228110184        0.97797023156759        0.01648331430329
H            4.37499807588185       -0.01454930962893       -0.41298875421130
H            4.23558607281291        2.32815470371700       -0.17450586507482
H            2.31972043291568        3.55081745633949        0.49305728963984
H            0.63782411301325       -2.45829594880442        0.23205316496545
H           -2.89165048323973       -2.56626207798599        0.57025972399671
H           -1.42809209568847       -3.44285246315210        0.51733007084827
H           -5.16390232820346       -0.15819680722368       -0.45459819424381
H           -4.17891731996483       -1.50407626168313       -0.70427664064838
H           -4.12950917339893        2.18788656848074       -0.20170693716571
H           -1.64468221436209        3.10813818023197       -0.02266116299333
