29
 energy: -56.004584486531 gnorm: 0.000822748802 xtb: 6.6.1 (8d0f1dd)
N            5.39578039424890        1.34570443187415       -0.67097274309889
C            4.32490613928111        0.95342301272693       -0.52967545681525
C            3.04741512409325        0.41582520956743       -0.34572042865337
C            1.82408854452471        1.07259314102439       -0.49347238352402
C            0.78506697121720        0.15893549017508       -0.23607153028456
C            1.39717373738957       -1.11584796504262        0.07507186894656
C            0.62824627676163       -2.21311026494227        0.39069675081443
C           -0.75889212833011       -2.12749952792542        0.26518997685016
C           -1.54696224450626       -3.27269878664941        0.49981421270227
N           -2.15501459412047       -4.21968062363285        0.72224236668865
C           -1.39060835515651       -0.94058143471964       -0.17617179273933
N           -2.61391869842995       -1.05228559989693       -0.66276564694021
C           -3.48275921478018       -0.13402704635933       -0.96628043657650
N           -3.63036635545962        1.06777461806766       -0.45897308481157
C           -2.66228782790283        1.77437074170681        0.10829159077741
N           -3.07961996069089        2.87341536761826        0.75844361094670
C           -1.24916442989804        1.54516801285542       -0.01395106074206
C           -0.46642045891847        2.66951798519685        0.30460226259011
N            0.08067713024403        3.64162069557094        0.58905688875159
C           -0.60920138838917        0.30096971269267       -0.21425599906659
C            2.80827545736950       -0.93644451892596        0.02467622973224
N            3.75257882591566       -1.85427990474039        0.27703952715660
H            1.71829384600248        2.09626549222332       -0.79757662500293
H            1.06938257139646       -3.15736133062042        0.67887471519605
H           -4.27979205893254       -0.45432510371826       -1.63022091697165
H           -2.42887132900760        3.55422667175782        1.11227340620319
H           -4.06639259557101        3.06814104675011        0.76217846874696
H            3.50560046563736       -2.79683061878934        0.52003252188985
H            4.72424969751151       -1.60279798174487        0.21082407533400
