26
 energy: -43.234565737952 gnorm: 0.000910920914 xtb: 6.6.1 (8d0f1dd)
N           -5.17899489496275       -0.08613235456609       -0.03417400156644
C           -4.03621277178821        0.03563764342751       -0.01865152516606
C           -2.63313774107090        0.18235774496539       -0.00396137828316
C           -2.16595775619323        1.49621771908476       -0.00216003281917
C           -0.87649874725418        1.97319325288389        0.00560897061205
C            0.36375993496965        1.31130037793604        0.00644729059107
N            1.39292137627615        2.16225205763452        0.00840075273531
C            2.64238098764350        1.72729169196976        0.00492763606559
C            2.96146411789935        0.38620490184222       -0.00057097961013
C            4.17795218938456       -0.32879516041811       -0.00502725924059
C            3.87174294681649       -1.67892956158951       -0.00630133050597
C            2.48269319607102       -1.84750550375143       -0.00279742789925
C            1.88238569762390       -0.58031034934828        0.00038101258200
C            0.54310583989286       -0.14284343007683        0.00410790779229
C           -0.47487112901730       -1.09673393343689        0.00636260060090
C           -1.86595762955717       -1.01341444232993        0.00551063157564
N           -2.55262574454614       -2.18537765744618        0.02395570959147
H           -2.94683401424042        2.24861963038840       -0.00788374649217
H           -0.76575810498802        3.05012794598737        0.00794830736826
H            3.40249983709441        2.49987286709387        0.00637287553707
H            5.15939270278594        0.10731037602335       -0.00715530265386
H            4.58664790659237       -2.48241143968422       -0.00932003673680
H            1.98556632609798       -2.80097779171197       -0.00278052002498
H           -0.10953309602247       -2.11808890257642        0.00904006963289
H           -3.55707622141614       -2.18919982927160       -0.01435118927245
H           -2.06383133889126       -3.06122296802952       -0.01127122721348
