30
 energy: -50.113052074198 gnorm: 0.000338769933 xtb: 6.6.1 (8d0f1dd)
N           -4.74886396294328        1.33611587169188       -0.06767020818606
C           -3.73896696232429        0.78297306904983       -0.03028806793488
C           -2.56008701428930        0.05031948082922        0.03394414383529
C           -2.49794336947351       -1.36723612344476        0.24444259089583
N           -3.60390228331290       -2.16569827776573        0.34852342943120
C           -1.17537067233836       -1.77557524686381        0.23460130509257
C           -0.35124561655089       -0.63404882155201        0.05648971063104
C           -1.24611011081330        0.51317933467470       -0.04717701831186
N           -0.82146819200832        1.75499532161927       -0.27113254142546
C            0.46942890003872        1.97660877584611       -0.25474057453432
N            0.83883221655388        3.30015415241848       -0.39408531675872
C            1.47232239189920        0.96250527875444       -0.01879919502247
C            2.73633722751216        1.40712217399037        0.34127625792557
C            3.89431429978248        0.70547014317917        0.65568566962680
C            4.14343614506739       -0.63680543382758        0.44624884083921
C            3.28696041773153       -1.58960299645948       -0.07737553542616
C            1.91393532935870       -1.51998105543725       -0.31668322348406
N            1.34499170339935       -2.63032989969117       -0.83991599764737
C            1.01964933111779       -0.42291139093458       -0.04806123392110
H           -3.48229579640180       -3.06746423398388        0.77929948516028
H           -4.47231576407539       -1.69781824761676        0.55408735328397
H           -0.85521773685677       -2.77794964767589        0.45709499067829
H            0.04052941665403        3.88689529808520       -0.58892422957822
H            1.64428385977141        3.50039343243438       -0.96509029848370
H            2.81794353805937        2.47999099213292        0.46306648802227
H            4.71386625134227        1.29444354028381        1.04556785949816
H            5.14699483804282       -0.97943945763530        0.66651271385576
H            3.72973401709907       -2.55755805672099       -0.28555028362563
H            1.93049876399848       -3.38006469174015       -1.16517179758372
H            0.39151504155959       -2.58268164314068       -1.16182360375264
