29
 energy: -56.797321884067 gnorm: 0.000610794812 xtb: 6.6.1 (8d0f1dd)
N            4.18345888994793        3.38108653148986       -0.00252937718666
C            3.39881680695403        2.54498614006443       -0.00128231091688
C            2.43803148133255        1.49950777505531       -0.00117328651490
C            1.12424224641127        1.92455916979599       -0.00075230268031
C           -0.10471823410353        1.24291645881233       -0.00026802911817
C           -1.24778785109494        2.05982903531594        0.00009723124480
C           -2.54457095809120        1.56113187344452        0.00056084162038
C           -3.64313145998082        2.45178238116622        0.00087144604055
N           -4.50828401816331        3.20244576060536        0.00132839076227
C           -2.73122761104830        0.17820169189976        0.00061695199281
N           -3.87707517064565       -0.51454537060340        0.00095006074097
C           -3.53476480826154       -1.79631796880284        0.00088544433241
C           -2.13542757196291       -1.99678153226048        0.00053543067453
C           -1.50890058951697       -3.24199064073427        0.00057894444124
N           -1.00268447096521       -4.27524501730732        0.00001467184330
C           -1.57014408578748       -0.70220738728000        0.00027924966489
C           -0.25546831697344       -0.20177380175220       -0.00011518551227
C            0.79429272473383       -1.13059833064206       -0.00028548723657
C            2.17250577620492       -0.99265965881383       -0.00069752281589
C            2.89666938807573       -2.21501559628511       -0.00060277636203
N            3.51556943000459       -3.17972873157274       -0.00062075081732
C            2.97207031524737        0.17961481914265       -0.00115180175277
N            4.30644831313217        0.04004866261170       -0.00156405627232
H            1.02454017512066        3.00590843852399       -0.00079609615246
H           -1.11617561309887        3.13244990925328        0.00001476697650
H           -4.28537887287753       -2.56546889927963        0.00112290451347
H            0.46709063361287       -2.16531327796938       -0.00002257184882
H            4.90703436379250        0.84922328640130       -0.00191237452295
H            4.72254483960126       -0.87804944757945       -0.00156883273776
