28
 energy: -50.679669614807 gnorm: 0.000647642377 xtb: 6.6.1 (8d0f1dd)
N            4.78267411571215        1.29846284233943        0.00377097101146
C            3.76371184470115        0.76249768262873        0.03616316867880
C            2.57494842257463        0.04521230600795        0.09762829936163
C            2.50553272226086       -1.38930587168461        0.24381582822790
N            3.60953466555428       -2.18573338968279        0.28078465315921
C            1.18320764795915       -1.78898334928069        0.24230375917064
C            0.37125447679533       -0.63343023172450        0.13367005538720
C            1.26976108448863        0.52191475199773        0.06506229952674
N            0.83844759845953        1.77606141543024       -0.04779541466077
C           -0.45148320520138        2.00035695208868       -0.09533557850249
N           -0.80609434269253        3.31982979389642       -0.19311424561135
C           -1.45895462155901        0.96269168901339       -0.05110366279488
C           -2.80441499282165        1.30139170845693       -0.15367314663088
N           -3.85870725565407        0.64957098102677        0.31501672971617
C           -3.88784879518538       -0.60783046860985        0.65609083953185
N           -3.14619306012370       -1.59093681780378        0.19223301001707
C           -1.91937795461278       -1.48993432584793       -0.26173812804061
N           -1.46375714976338       -2.50948054760641       -0.99540157748842
C           -0.98585468819745       -0.40932933645264        0.03663511242327
H            3.50516277957774       -3.12485595406098        0.62542373329664
H            4.49323479047542       -1.73584811257871        0.45521600168129
H            0.84492022310659       -2.79755065954015        0.39987399415729
H           -0.02772233307929        3.94756408145816       -0.06330343033006
H           -1.68639436018647        3.62726128468320        0.17994711650824
H           -3.06004898308514        2.28312200179029       -0.53960344658544
H           -4.72619131098615       -0.91202786821922        1.27475352493502
H           -0.50817159917529       -2.51508735616206       -1.31130390523094
H           -2.08792517473960       -3.26357144966309       -1.22670210561371
