31
 energy: -54.640625936180 gnorm: 0.000671366435 xtb: 6.6.1 (8d0f1dd)
N           -5.69761774410834       -0.96531659506530        0.92562928654113
C           -4.67158172597008       -0.52258003547534        0.66314594310554
C           -3.41239485227150        0.01826609451752        0.32270664984882
C           -3.25995111456680        1.39660842845941        0.45180658310357
N           -2.30013319346055        2.13863285832599       -0.04263265717332
C           -1.11729245799460        1.78371650626246       -0.48387375387976
N           -0.49477741422327        2.69624498634723       -1.24652089111953
C           -0.38217157857127        0.56666210806587       -0.18732732778303
C           -1.06134283713314       -0.71988227826232       -0.25296377724738
C           -2.42021531040014       -0.90166762328873       -0.07182752006262
C           -0.24813911919876       -1.89920932257589       -0.44849671127059
N           -0.85124507194001       -3.11835718922955       -0.69519127046517
C            1.11591274650458       -1.84708331658055       -0.26599032233288
C            1.74453900247408       -0.63707844059991        0.02176632793177
C            3.08185698345569       -0.31074143843883        0.23125455001945
C            4.16639684442610       -1.17511691583448        0.29744271064830
N            5.08442175050686       -1.86871980860353        0.36402181527754
C            3.16138183038861        1.12304185084572        0.38545926545850
N            4.33514321978883        1.78848164914691        0.57437158125088
C            1.90289148714446        1.66452761444739        0.22410596788950
C            0.98423594662587        0.60444431833128        0.00439065221025
H           -4.05745555587756        1.95969658517054        0.92522473651699
H            0.44284407509156        2.53429093039511       -1.57020806559635
H           -0.96836024085382        3.55768245769719       -1.45809344514071
H           -2.77152924919573       -1.92606303998845       -0.09480233285535
H           -1.65832900147242       -3.12887080229529       -1.29680204400731
H           -0.20726525065585       -3.87403957287340       -0.86787921966641
H            1.70684016060717       -2.74866715801903       -0.34986400336686
H            4.29139538161773        2.73651190580833        0.90767148794199
H            5.12787636913982        1.24492825655808        0.87429980987286
H            1.66114990042467        2.70555294115598        0.33645218455306
