26
 energy: -42.430559391881 gnorm: 0.000848913024 xtb: 6.6.1 (8d0f1dd)
N           -3.72378229410349       -1.79350679008176        0.00421752957060
C           -2.84905678521134       -0.75062604008047        0.00630916135255
C           -3.38282206848155        0.54038989309401       -0.01600766407126
C           -2.67890494586993        1.73862511911896       -0.05277283930230
N           -1.40671211253168        2.02217329370015       -0.04308174155743
C           -0.34548579148108        1.20111358131055       -0.01293671812265
C            0.86852605251548        1.87961541334509        0.01756105305765
C            2.12051391518471        1.25877874725616        0.02952681085578
N            3.25426201305028        1.98868083540059        0.07698882564126
C            2.14685330706904       -0.14360985848711        0.00196327702390
C            3.16150396042633       -1.10483734302212       -0.00908230846001
N            2.65808318807157       -2.34606858835890       -0.03954114985727
C            1.32998230598990       -2.23255519554959       -0.04766112916333
C            0.91553267314892       -0.88764159955528       -0.02322618838016
C           -0.35325753911450       -0.27195253381428       -0.01903873309386
C           -1.48285934232245       -1.07517228855459       -0.00543005183831
H           -4.70693216607617       -1.62371174486405        0.11471037687879
H           -3.38897883946429       -2.73285542798222        0.11941133660180
H           -4.46301378226184        0.61651793806785       -0.01180554243359
H           -3.29561525193285        2.63594421937134       -0.08760113772140
H            0.81556709017288        2.95826510617852        0.02684685431493
H            4.14678704818331        1.53276331570846        0.02457973622163
H            3.21360074704846        2.99143426875615        0.03617659181316
H            4.22705743911228       -0.95637511691637        0.00318447492070
H            0.72576457109532       -3.12182967707190       -0.07444291321729
H           -1.27881422181730       -2.13959808666918        0.00354196846611
