28
 energy: -51.483315491632 gnorm: 0.000662929464 xtb: 6.6.1 (8d0f1dd)
N           -5.71470457547603       -0.13015160977189       -0.21541503933631
C           -4.60641577297236        0.16985855541979       -0.15614553075293
C           -3.24578926690220        0.47958926447978       -0.08375678897408
C           -2.67134470170721        1.74895093955391        0.00587433362450
C           -1.27220265930739        1.60177944958899        0.05612157706662
C           -0.20460829642973        2.47077095289609        0.19834364807408
N            1.04299519809889        2.04467304845659        0.19577437740645
C            1.35352552420153        0.74875776183407        0.08532045779586
C            2.74241127579036        0.50564501676593       -0.04263877791494
C            3.56796370157049        1.65427726410863       -0.06478108178715
N            4.29632218956241        2.54098390959088       -0.08461326508863
C            3.41501607615968       -0.71409398385734       -0.19753433053410
C            2.91238305754815       -1.98587342227996       -0.15527205046562
C            1.55796617962471       -2.36591036643242        0.06111462888085
N            1.32673234072924       -3.69663426769083        0.19661428003927
N            0.46848646449850       -1.63235135643165        0.08542429403674
C            0.32955569634411       -0.29533482329458        0.04370804904407
C           -0.97327434092508        0.19225308672211       -0.00817558379352
C           -2.20955947660365       -0.50113299472041       -0.08902443895191
N           -2.32101668816435       -1.83098621619102       -0.15200393758242
H           -3.21185732973198        2.67654778903311        0.03545252459525
H           -0.33253891059328        3.53961622490208        0.30963040527404
H            4.48525268688865       -0.62491080263865       -0.34606104731435
H            3.61226297050353       -2.80213755217459       -0.27279369158171
H            2.09042613748462       -4.34130027908618        0.28982653815094
H            0.40427153880221       -4.00602328807172        0.44791245617210
H           -3.21622232962600       -2.28403973793083       -0.21114478095349
H           -1.44426806676775       -2.33640952087988       -0.13388963392960
