29
 energy: -51.218644758262 gnorm: 0.000710895216 xtb: 6.6.1 (8d0f1dd)
N            4.97704276294369       -1.49909637817085       -0.00359132917688
C            4.07705937986575       -0.78425562136645       -0.00486353712372
C            2.97804347798359        0.10678254218846        0.00000474798070
C            3.34375206945032        1.44603386658330        0.00491395420493
C            2.52620204257717        2.56055151849667        0.00702173104643
C            1.14620475340016        2.59539992411024        0.00416324399031
C            0.17734607141647        1.58230860840101        0.00295612822208
C           -1.15336917492779        2.07189057575257       -0.00043602721728
C           -2.27009389737676        1.26887000622952       -0.00039120990539
C           -3.56684729003726        1.82189312370616       -0.00168801916267
N           -4.62698398720940        2.26136887279801       -0.00325648528690
C           -2.09236780589307       -0.12746376576815        0.00520549432938
C           -2.94831389614324       -1.21202843364524        0.01088795640729
C           -2.10834300336437       -2.34767589194149        0.02181416162319
N           -2.50420771730622       -3.64418418209062       -0.02399179227302
N           -0.80891347715501       -2.01888295375322        0.02317063871821
C           -0.74202197687535       -0.65977745375074        0.01036983993800
C            0.40045478208972        0.14777581532186        0.00603053228493
C            1.68853087924150       -0.50778415880670        0.00056316612116
N            1.67269177642845       -1.83489607649751       -0.00379590139162
H            4.41222481258756        1.62898996556542        0.00614603577105
H            3.02829993850680        3.51857770719795        0.00970570134134
H            0.73102804405172        3.59675964864865        0.00316953759550
H           -1.29763471296542        3.14308924207679       -0.00305561779702
H           -4.01988058245614       -1.20739958793822        0.00763016542983
H           -1.81365608484040       -4.34632857893734        0.17951240624211
H           -3.45774907916462       -3.85433001324566        0.21361904293340
H            0.72940836381935       -2.29170678996883       -0.00248737535961
H            2.53938790005281       -2.34960170759556       -0.01347142318585
