28
 energy: -46.686539140175 gnorm: 0.000804773631 xtb: 6.6.1 (8d0f1dd)
N           -4.28915577942956        1.41991630025696        0.20906165610875
C           -3.21095257757378        1.03286364105816        0.11422332349114
C           -1.88346825645844        0.57752577100233        0.02031271481841
C           -0.82220402556188        1.47703200833443        0.07042896291316
N           -1.10895705404098        2.83308547983474        0.15719561503370
C            0.54324537009350        1.04118593167407       -0.03135173680147
C            1.47577459041845        2.07056443119629       -0.26527887391180
C            2.84767830856053        2.08822599438341       -0.27147208901944
C            3.71620509792891        1.03450293171786        0.01656156896893
C            3.40175726887385       -0.28200024200053        0.20621086566446
C            2.15855505940283       -0.95278311695112        0.11054414256970
N            2.20757138033367       -2.27913201555047        0.15886320836412
C            0.83772741922800       -0.37196657244223        0.00554034401892
C           -0.25087691448724       -1.24991162162043       -0.04561280598701
N           -0.23447960126119       -2.61191134421336       -0.06980483993224
C           -1.50756657444199       -3.00919649040685       -0.13091162382487
C           -2.40673337431106       -1.94462498201628       -0.13985665311626
C           -1.61935540908719       -0.79857469628816       -0.08255639816208
H           -0.51941921690413        3.38455218012250        0.76036643016090
H           -2.09218967325377        3.03175346044517        0.28104899603062
H            1.02136771128640        3.02489569693870       -0.49931110897463
H            3.31339566147505        3.03964084785188       -0.49244693176300
H            4.76779968071186        1.28770939109378        0.07050839797718
H            4.23879187627126       -0.94655994460279        0.39325496754949
H            1.28108492077922       -2.78775657528907        0.07496887509837
H            3.09537392535973       -2.74379022271994        0.25394614437932
H           -1.73858494951276       -4.05932514284512       -0.16645116420470
H           -3.47671014909887       -1.99971347216396       -0.17833025394665
