35
 energy: -62.332412290431 gnorm: 0.000921677267 xtb: 6.6.1 (8d0f1dd)
N            5.36384586931598       -2.70069084613479        0.10970893838014
C            4.39070735002841       -2.08617987654380        0.11857853759071
C            3.19971402293593       -1.33828321802041        0.12395521615204
C            2.03827519962951       -2.05840247321032        0.42095241000108
C            0.72701928243699       -1.66768324324984        0.39172208710334
C            0.13597874037093       -0.41198129024888        0.11718364764039
C            0.84971180451842        0.85075828887087        0.08415620241107
C            0.10966156192864        2.02953372338800        0.14660182903776
C           -1.28517281571201        2.09404869928954        0.16149233434213
N           -1.91066384688823        3.30867179219529        0.24368630705648
C           -1.98950730386231        0.89194269326162        0.08979081255699
C           -3.36841641404488        0.59776423466527        0.07738472121068
N           -4.41035424564317        1.47236930408064        0.20312556767377
C           -3.50712385895615       -0.79516475065334       -0.13776229949237
C           -4.71583174201042       -1.47458564406952       -0.26259156573760
N           -5.71848355454343       -2.03083668407011       -0.36617829543460
C           -2.22535572365809       -1.37933213111042       -0.20866587791360
N           -2.01651003650918       -2.70339735626242       -0.43912484057551
C           -1.25734736581068       -0.34720663163131       -0.01060732963777
C            2.26745437225066        0.99681837676204       -0.06735071341930
C            2.72138179074238        2.32125214897347       -0.23575282952171
N            3.15393137763697        3.38028778132854       -0.37393083504763
C            3.31319478245868        0.05222915127644       -0.13344620578173
N            4.55642203022043        0.50263848955248       -0.43186597057582
H            2.21530297132846       -3.09668166103317        0.68017341424378
H            0.02250651117435       -2.43496339763843        0.67853498579700
H            0.64065551926849        2.97037307673004        0.16395202975511
H           -2.82073987947370        3.38512667804877       -0.18029828852000
H           -1.31802221611821        4.11531911924173        0.11974934951884
H           -5.31929688812863        1.04452072388816        0.30509066794472
H           -4.26036375048461        2.28101603748746        0.78574995666192
H           -2.82781711541110       -3.23168324044104       -0.72371420113809
H           -1.14277600616735       -2.98083099090352       -0.85693353383056
H            5.33551050267421       -0.13294194325583       -0.40630912841805
H            4.72997823030826        1.48602140812855       -0.54901587723034
