28
 energy: -45.872836666322 gnorm: 0.000560663667 xtb: 6.6.1 (8d0f1dd)
N           -3.68745491079548        1.54980477636150       -0.71908183761394
C           -2.81745848095938        0.57817726694806       -0.29518300154738
C           -3.37789850289355       -0.61747218380856        0.17901790777886
C           -2.67736422880386       -1.69822818677892        0.68775289754931
N           -1.41844243463108       -2.02445700779990        0.57148907706415
C           -0.37809320960126       -1.32206732822931        0.15315776051625
N            0.69670729976843       -2.04670826171405       -0.11403931253674
C            1.89725943005752       -1.48265160836258       -0.26730819655485
N            2.89579324318333       -2.31992749549021       -0.63546597640613
C            2.09907998583466       -0.11722042232177       -0.04221218496552
C            3.22556609517776        0.71610421338253       -0.01733239221129
C            2.80026091816598        2.01945873192481        0.20899589265626
C            1.40451232344845        2.04222207971565        0.30781989603073
N            0.63138190426274        3.16850145202110        0.52145474347318
C            0.93338936739960        0.71390251483575        0.14415651737420
C           -0.34746179698062        0.15680394681664        0.07797122456024
C           -1.46780769801329        0.93165042654985       -0.22281157285293
H           -3.31324549026555        2.34496635721600       -1.20762161813646
H           -4.62615573208040        1.27826664415024       -0.95467162227842
H           -4.45886125599078       -0.67444143587692        0.19363285366132
H           -3.26321920694941       -2.46135645042085        1.19609182668557
H            2.69002429543347       -3.30413924059066       -0.62552502161022
H            3.84953860674932       -2.01809321819898       -0.55274413972134
H            4.24886914668134        0.40867475766816       -0.14163842104207
H            3.43672752396419        2.88208106390396        0.29912786766215
H           -0.22147495969665        3.00429605305161        1.03784586777396
H            1.15447048840894        3.96159354367397        0.86533387678370
H           -1.24695094737452        1.94716550767309       -0.53244741139294
