30
 energy: -50.120676168254 gnorm: 0.000417260541 xtb: 6.6.1 (8d0f1dd)
N           -5.00519446926618        1.83552508857974        0.31783776561671
C           -4.04286776130244        1.21254631702485        0.20797678211925
C           -2.85103768133714        0.49836321405355        0.10193025280706
C           -2.71152248193353       -0.88222168759662       -0.11478429355335
C           -1.35179090839947       -1.18627095490722       -0.09593297709417
C           -0.66008532931496       -2.40213251195480       -0.23194358105337
N           -1.31239576534611       -3.55956629030928       -0.49890583737026
C            0.72497975474260       -2.38985783552261       -0.06294162628354
C            1.46470895279705       -1.23322652701482        0.16194172027278
N            2.73457133738553       -1.43373748820831        0.52173688942590
C            3.72700042656372       -0.59536015317427        0.61846013397760
C            3.86431510065278        0.71365709905571        0.17266374375931
C            2.83061368259815        1.55318913861642       -0.25255962018380
N            3.16862373152729        2.82304844191883       -0.63321576387900
C            1.45891600976578        1.26327057178376       -0.19760422727134
C            0.79287033210946        0.07197899691442        0.07117893852980
C           -0.61238009721646        0.03939466267239        0.09827030740800
C           -1.56476328082758        1.07412459985900        0.24067715032376
N           -1.33494516509180        2.41164470979432        0.47138000910700
H           -3.53208437344929       -1.56183862393318       -0.25905358541167
H           -0.81567486617225       -4.43034550246677       -0.42992129776611
H           -2.31490866428012       -3.58039538739715       -0.44873216140020
H            1.26638443105181       -3.32422783832948       -0.06296136583765
H            4.61540722431722       -1.04847763148526        1.05414477634856
H            4.86174001376825        1.13418002561598        0.18137039577076
H            2.47609729752123        3.39320511217201       -1.08718453667079
H            4.13075473919311        3.02257360388016       -0.84465237236237
H            0.81913149668141        2.08433499665445       -0.49741452083184
H           -0.52263378286463        2.62492878739975        1.03218568717900
H           -2.16182637117237        2.92864130110459        0.73798211582305
