28
 energy: -45.862265589345 gnorm: 0.000674019655 xtb: 6.6.1 (8d0f1dd)
N           -4.61735900579886        0.85689133847548       -0.11588523693673
C           -3.36714046338339        0.30873666563558       -0.09256752822110
C           -3.05437599478519       -1.06076492672198        0.00082215653118
C           -1.66733721284514       -1.11084306320260        0.05639086664320
C           -0.70888454299045       -2.10161055756673        0.21200412351412
C            0.64029173238457       -1.79161723981214        0.18889193617733
N            1.55673160101281       -2.86615857850522        0.33909752578747
C            1.11338157561399       -0.46089925505092        0.02583186753176
C            2.47916722882601       -0.20466035776986       -0.27456871931433
N            3.24201622988955       -1.20741250345434       -0.76196960197090
C            3.17994535715172        1.00643621497829       -0.03900250976487
C            2.69442680959363        2.23465375116541        0.32355403248986
N            1.45632885548265        2.70954378485145        0.23752137438068
C            0.38954372700405        2.00548308094445       -0.00735900694145
C            0.12899590074993        0.61894633894139        0.02145558926994
C           -1.22460833231045        0.27334089765760       -0.01761163801708
N           -2.27969671690450        1.10285366055633       -0.09479811662950
H           -5.36788767376323        0.27564975204000       -0.44975894533186
H           -4.65120721204102        1.82601792934887       -0.38699560761805
H           -3.75236826128768       -1.87486402590562        0.02741881677148
H           -1.00992896815696       -3.13273247127219        0.35295606651443
H            2.25995836938301       -2.68357013762421        1.04517097742730
H            1.06617430236989       -3.72444576038667        0.55952287124407
H            4.19836198112968       -1.03199827159390       -1.01295142538309
H            2.82507256833432       -2.10930988155772       -0.93479948756437
H            4.25840727089955        0.92113635952483       -0.11938002680078
H            3.41652771350535        2.98868554623571        0.62421080315925
H           -0.50284647056397        2.60222804886888       -0.17559391304791
