30
 energy: -54.927726974359 gnorm: 0.000876942568 xtb: 6.6.1 (8d0f1dd)
N           -2.18869018595790        3.01916492945813       -0.91693545938927
C           -1.85522805221511        1.99153785888323       -0.51965952012601
C           -1.57641140399836        0.65374752273498       -0.17056734913139
C           -2.72741890736629       -0.18715992566319       -0.19668660341030
N           -3.89691525823783        0.34646981844211       -0.60620571305882
N           -2.84393417730638       -1.43912851650675        0.21552864954264
C           -1.88050323074733       -2.31815520089961        0.41681924808465
N           -2.31603106031184       -3.50891853816557        0.88725000049793
C           -0.50605725727959       -2.20646976894577        0.11286674631858
C            0.26277880420813       -1.07383185484772       -0.06768696739089
C           -0.22551180874022        0.30024738764168        0.04869138513766
C            0.70560651841117        1.33047518630532        0.28766212388059
C            0.29331095344018        2.60224726738264        0.72597569135103
N            0.11116539032354        3.63960275017644        1.18994331930936
C            2.11357202351373        1.15127411630922        0.18598171493181
N            2.95049801246225        2.17471553553095        0.41524997530949
C            2.57075760518361       -0.11895089937602       -0.17547883702770
C            3.83759761934563       -0.67231400478276       -0.42067153341992
N            3.75504890453161       -1.97953209766330       -0.67417731440792
C            2.46518743825838       -2.32077126806961       -0.58605777143153
C            1.65280391995960       -1.21663582597058       -0.28669920160424
H           -3.97260811689756        1.31709388065940       -0.85667780010076
H           -4.71885682603916       -0.22795038397113       -0.54752072418957
H           -1.67406458296321       -4.24567616582137        1.11223906204702
H           -3.28912815266449       -3.60522568105168        1.11649765282490
H            0.03588141857968       -3.14282986794213        0.10353062089090
H            2.59167728581087        3.07901587585597        0.67503926062066
H            3.94093777585333        2.04165612319555        0.31906642166450
H            4.79291135626490       -0.17828055137028       -0.42863066593087
H            2.17056325857805       -3.33890110222661       -0.76575240349178
