32
 energy: -54.349535329901 gnorm: 0.000903824024 xtb: 6.6.1 (8d0f1dd)
N           -5.50952701083483        0.14027954546219       -0.57425615881293
C           -4.43150159078961       -0.19833964352901       -0.35908156414998
C           -3.11114114114080       -0.61216350173163       -0.08333545918697
C           -3.00944812476422       -1.89839176082693        0.45738277729486
C           -1.86613013118101       -2.64002625234018        0.63891955993274
C           -0.55881697003017       -2.26194540425740        0.35662991213532
C            0.00415522671981       -1.02168714354098        0.07263666814544
C           -0.71029292206239        0.25539273815588        0.01654114915513
C           -2.09385529230675        0.33405249692985       -0.35882922337238
N           -2.48461431051922        1.42297909022463       -1.05380156230075
C            0.01808356621125        1.44466316220600        0.19252316102354
N           -0.62945339183299        2.68302187791099        0.33326660786311
C            1.43085770321198        1.45320750425617        0.19918540509047
C            2.11761071876670        2.66237995537145        0.40729431789105
N            2.65913884636308        3.65976505009810        0.59300771471815
C            2.14265183174438        0.27971270621782       -0.02288672702395
C            3.50411095315180        0.01175518098096       -0.14145215304093
C            3.64392030255893       -1.37050557003864       -0.28109136209536
N            4.82021154717215       -2.05173207310594       -0.38907922879086
C            2.36284960615850       -1.98029722186803       -0.23136150516257
C            1.41133693847313       -0.98448474396303       -0.08444418305123
H           -3.95389052921599       -2.37836407574403        0.68362229589316
H           -2.00198019149633       -3.65187664116995        0.99713492881898
H            0.16519608130584       -3.06075819453869        0.44452373847155
H           -1.83757183833350        2.17925737004866       -1.20948079975225
H           -3.45181963576658        1.53441822305797       -1.30907135534454
H            0.00492274064437        3.42251604698494        0.60682437935822
H           -1.45454308428574        2.66513438517365        0.91629733695493
H            4.29782960078474        0.73440196653208       -0.12554756659262
H            4.78331913306208       -3.00447024832307       -0.70949198127819
H            5.63972288999202       -1.52811536226351       -0.64648221058043
H            2.20026046793847       -3.03802529877091       -0.32848531451124
