29
 energy: -55.219287980048 gnorm: 0.000527065229 xtb: 6.6.1 (8d0f1dd)
N           -5.57811041569576        2.20346791607898        1.24740684197080
C           -4.64231280343599        1.59901362090978        0.96563992413275
C           -3.50961815946721        0.85326175432291        0.61809367661655
C           -3.52463376918972       -0.50886690893111        0.23651425558356
C           -2.21217700249001       -0.89431291155268       -0.00810205399806
C           -1.62775837820297       -2.06630666436152       -0.55223900200295
N           -2.37097700610382       -3.07478291786151       -1.02982545308106
N           -0.30900026689714       -2.22808164042548       -0.59101554915465
C            0.49229103475004       -1.24249903923890       -0.21729669528928
N            1.69525057888302       -1.56313329892938        0.18374976712589
C            2.74508054313542       -0.81600018032499        0.48146826920917
N            3.65918996522690       -1.42169785465391        1.26794461402724
C            3.03192555953187        0.47546723368381       -0.02984026612177
C            4.34672236641380        0.95302370308743        0.03949496414119
N            5.42833503715989        1.34463818841798        0.09095593823683
C            2.02880690455968        1.31970917244280       -0.57700737215320
N            2.40311409632587        2.41069094558263       -1.27898535491452
N            0.73199466877590        1.21275916427001       -0.35277599732394
C           -0.00626176467189        0.16478584901748       -0.09676614642946
C           -1.36949997173304        0.25545173534085        0.20671615947985
C           -2.19654059484775        1.32681330627373        0.58322356224351
H           -4.41064125570457       -1.11296806434197        0.15877890662950
H           -1.90012166054756       -3.89164832709636       -1.37923501304942
H           -3.36983715040357       -3.06792561951442       -0.93385251460746
H            4.55912002187144       -1.00175414586255        1.42422092416475
H            3.50759493483367       -2.38568442729557        1.50861702254838
H            1.69495182518449        3.07898545108221       -1.52830378073315
H            3.37259585411602        2.67144470660921       -1.33333535943896
H           -1.87400280227853        2.32327770417114        0.81696501558961
