31
 energy: -58.661444174749 gnorm: 0.000484006367 xtb: 6.6.1 (8d0f1dd)
N            4.95536604620146        1.79767048757496       -0.15889676787517
C            3.90718123305200        1.31869189883067       -0.10273923470211
C            2.62846154975250        0.75096624169850       -0.03273258581555
C            1.54308244698067        1.67823849027761        0.06521471580496
N            1.88968216803194        2.98832651485663        0.13918045215397
N            0.24712365883560        1.48304107642402        0.06869144623822
C           -0.44166307969701        0.32248277178802        0.04994259780297
C            0.03417248319815       -1.04943827488872        0.09097274617077
N           -0.80933312087631       -2.09239447476533        0.15461258895364
C           -2.11987494741920       -1.94934310080173        0.13894774974507
C           -2.69877202091321       -0.70169760185917        0.03805933955952
C           -4.01520048402208       -0.13392291342048       -0.02368441418698
N           -5.17297408526480       -0.80232035467358       -0.02601075155929
N           -3.98472344047901        1.20867539939452       -0.08474077421134
C           -2.69072733353186        1.56723439371723       -0.06647383401444
N           -2.23323741068078        2.81348892132009       -0.10842349256310
C           -1.82383389095420        0.42716425196743        0.00444375142999
C            1.39244456788788       -1.44561315071826        0.04351342937417
C            1.59257241136508       -2.84222633422719        0.05785951204586
N            1.84862223394595       -3.96400282335557        0.06688533181993
C            2.56484280258480       -0.65936163600592       -0.04581405650425
N            3.73859880057225       -1.32274967835334       -0.14198952348425
H            2.85403011750849        3.26932920883607        0.15212600326760
H            1.16678552977542        3.67795981139172        0.23252233972264
H           -2.68634481038879       -2.87006102894100        0.20480509598260
H           -6.03221748120646       -0.28343579898096       -0.06766237802672
H           -5.18774179300006       -1.80406495721007        0.02769385642772
H           -1.22177029429530        2.88729341689918       -0.07065257607378
H           -2.85651389798613        3.60001834817374       -0.14650773300800
H            3.74792495915567       -2.32859071233771       -0.13243551344055
H            4.60601553196750       -0.81598548211127       -0.18874298293450
