22
 energy: -35.538700613270 gnorm: 0.000645273905 xtb: 6.6.1 (8d0f1dd)
C            3.36383400244078       -0.69480071839817       -0.05474970885551
C            2.41511427627334       -1.65506578008944       -0.37234524630521
C            1.03999207582925       -1.57268120274229       -0.22339384329389
C            0.23511692834834       -0.45163312892603        0.01188439220848
C            0.75870434705772        0.93529606721978       -0.00780201818501
N            1.98393180902214        1.26698638649849        0.34949944580929
C            3.08278172280688        0.57930223623382        0.44599403699142
N           -0.02667483073144        1.97233167824644       -0.29254508738569
C           -1.33651825145803        1.82946049273760       -0.35397925195305
C           -1.97307917704418        0.63634119822537       -0.05433595826023
C           -3.31594007844314        0.23621196751555        0.02846035948119
C           -3.34008249798644       -1.13774809214942        0.25590753313676
C           -2.03766718616721       -1.63087578199647        0.30061257837780
C           -1.15480791496494       -0.55219017649034        0.12101708444735
H            4.40593122243123       -0.97224149170981       -0.13832914434004
H            2.79803218189096       -2.61720621220480       -0.69135330174926
H            0.49263167090234       -2.49430380953964       -0.38174557745382
H            3.89947182563833        1.12946177889411        0.90534035174501
H           -1.88998526775429        2.72188809107375       -0.62153692230852
H           -4.17012437715931        0.88010591475446       -0.07033732915670
H           -4.22898008227194       -1.73192097688761        0.37195936405295
H           -1.76444498626052       -2.65708789866510        0.46695916629663
