30
 energy: -54.141440882728 gnorm: 0.000843083407 xtb: 6.6.1 (8d0f1dd)
N           -1.24860328985776       -3.95205310868152        0.17566107949969
C           -0.80316116454265       -2.89163505921470        0.10456529692815
C           -0.19051645208360       -1.63135489252108        0.03571183356865
C            1.22711358759351       -1.62176125478120        0.02748893730423
N            1.92692637323333       -2.79464160368917        0.04121971660649
C            1.84492817704080       -0.37913911685107       -0.04056823387538
C            3.17844009011032        0.09837321684762       -0.10554822710855
N            4.32320706026149       -0.63653365576432       -0.14984158419625
N            3.24221149269328        1.44491142095636       -0.08415336621324
C            1.98073962582143        1.89022306445420       -0.02868384428924
N            1.61235443265194        3.16695464160231       -0.00256247357926
C            1.03708195965436        0.80713904107669       -0.01590099970379
C           -0.34152233476568        0.83138445411994        0.00946023150389
N           -0.91179676755399        2.06642475730740        0.04634058285662
C           -2.17959018062626        2.36587635013862        0.04964723577929
N           -3.30584530474411        1.68518867524450       -0.00914820142189
C           -3.39495173338314        0.34997843376085       -0.05061932199955
N           -4.67488420481912       -0.07994839333079       -0.12970270021915
C           -2.39015326982237       -0.62676813650278       -0.02180788750357
C           -1.00201584658869       -0.46479895047663        0.00686922552384
H            1.40063721166801       -3.63245697699583        0.23924114111853
H            2.86399469593644       -2.76783336967776        0.40583982592392
H            4.28504540732649       -1.52356614729745       -0.62602875624969
H            5.14997285652959       -0.08655891009299       -0.32905313783177
H            0.60651918827388        3.31310016535936        0.03274626999334
H            2.29278660531778        3.90522015235717       -0.00123785627353
H           -2.35688548587968        3.44209418371351        0.10322669068946
H           -4.90450952792937       -1.05663540539281       -0.11282388626052
H           -5.40297668510413        0.61183833708018       -0.11345930018157
H           -2.74716209821279       -1.65010037495006       -0.04069917778853
