28
 energy: -41.867744298126 gnorm: 0.000631492088 xtb: 6.6.1 (8d0f1dd)
N           -4.65122091143639       -0.87555228971792        0.19478589488356
C           -3.37644916113027       -0.34886511109066        0.13325271099192
C           -3.05715255887860        0.99251083492577       -0.07539773353381
C           -1.66281749407889        1.09166032405529       -0.13673479895459
C           -0.80708263669199        2.15168098703498       -0.35339866172757
C            0.56154574555133        1.94749591762233       -0.29753982680303
C            1.15325733678299        0.69544345076614       -0.08266389632527
C            2.56478718744529        0.65812807087545        0.13555470800762
N            3.18434247822265        1.85071847448089        0.40994706790088
C            3.43826504317730       -0.43151001630584        0.03270764986273
C            3.17971621146484       -1.76721676412167       -0.18316269187420
C            1.94212613713785       -2.39490898910388       -0.21451494986240
C            0.69813631011380       -1.81616495867784       -0.07764059291922
C            0.28637273639646       -0.47754815109687       -0.02300483067931
C           -1.10490511517185       -0.24423868926557        0.03568461594853
C           -2.19108602965418       -1.10604042148289        0.19349430461366
H           -4.72841666455619       -1.77166820443344        0.65035434753551
H           -5.37578829563555       -0.22347522247577        0.45232494668990
H           -3.75685926295629        1.80225764136952       -0.17234736806408
H           -1.19372973468568        3.14293090332174       -0.54696916851107
H            1.19432106889741        2.80390174799878       -0.47957571796169
H            4.15032748308547        1.81911196225471        0.68879819277891
H            2.63825809528145        2.60472504688384        0.78697666022321
H            4.48705814289611       -0.16980258187890        0.12989170080220
H            4.04704168604358       -2.40760374789649       -0.28522524368296
H            1.95770083376608       -3.47102597335743       -0.33367702420691
H           -0.12346416280844       -2.52012407920973       -0.07037257516992
H           -2.17091119957813       -2.16891260877456        0.35617784963757
