25
 energy: -42.706498593043 gnorm: 0.000461097449 xtb: 6.6.1 (8d0f1dd)
N           -2.62747113480727       -1.53008902432152        0.85312928657731
C           -2.08189192642035       -0.47236959967487        0.23353220507518
N           -2.95676082670396        0.44146887663217       -0.16579203418016
C           -2.81567760627556        1.70985182757338       -0.39977743999746
C           -1.72610757689355        2.53140939746118       -0.07158652928943
C           -0.45341024695893        2.08002234746877        0.16552278118118
C            0.07047813669876        0.77101188728358        0.04972381824834
C           -0.67457819105601       -0.46454430939219       -0.03288746055931
C            0.04421030332276       -1.67469082463674       -0.21772444070399
N           -0.63504089923443       -2.89838161872013       -0.34272146005700
N            1.35896114217530       -1.77877987492448       -0.24306282996361
C            2.07656591394616       -0.67309612454355       -0.09283373846540
C            3.45404665243061       -0.43947765146976       -0.04122972610677
C            3.57842839190056        0.93802083996909        0.10041819508415
N            2.40384009377994        1.59303119034625        0.15753862177918
C            1.46271590442688        0.64562228417558        0.04695791144142
H           -3.62060664364320       -1.54135882523644        1.00850862152992
H           -2.05413984691144       -2.33273189861580        1.06431309661296
H           -3.69285704055862        2.17361875755349       -0.84172137784820
H           -1.89713225546565        3.59895664095930       -0.07880669575178
H            0.31968680105709        2.81701748786575        0.34698460525392
H           -1.38154342807896       -2.88970130249868       -1.02629620949402
H            0.03722262027497       -3.62947039505910       -0.54401083340948
H            4.24359777217561       -1.16015145241057       -0.11172000115041
H            4.49434982561940        1.49916453111515        0.17281254059347
