32
 energy: -59.180340102766 gnorm: 0.000621915021 xtb: 6.6.1 (8d0f1dd)
N            4.96383305231880       -2.87971414033588       -0.01441690867213
C            4.05116214327750       -2.17829817848599       -0.01078702352008
C            2.94104961312057       -1.31712856412151       -0.00597567476462
C            1.69231697930946       -1.94724421891728       -0.00601017998194
N            0.47337123700904       -1.49733586707495       -0.00256713817020
C            0.04012892048869       -0.20740261758060        0.00208102758253
C            0.80487564928038        1.02139121837743        0.00483694068515
C            0.10224311510511        2.23635063141269        0.00945833982604
C           -1.27842649570851        2.34263672882724        0.01173361661169
C           -2.02565042037843        1.18384120160379        0.00938269225542
C           -3.42999454392382        0.91723060855023        0.01075903856572
N           -4.41066581994717        1.83127811152171        0.01460442748431
C           -3.61131710528104       -0.48534988540519        0.00688114785032
C           -4.84377078700712       -1.13630449989687        0.00725880502167
N           -5.86670591198856       -1.66331834269442        0.00671152199636
C           -2.34016400232622       -1.10786481346301        0.00296348420430
N           -2.03956348449935       -2.39906412062786       -0.00133932962757
C           -1.34441845112323       -0.07220580279845        0.00455960803655
C            2.23631587617057        1.10441247867961        0.00343178830143
C            2.78924343195729        2.40008673812833        0.00827738675457
N            3.31122598555345        3.42726223380900        0.00963355379185
C            3.20672256363936        0.08286850168571       -0.00147576199633
N            4.50826879644921        0.44010209810784       -0.00200563539198
H            1.73762822026406       -3.03620889936334       -0.00960685585664
H            0.67807959279173        3.14991430876735        0.01135469008101
H           -1.73665291003575        3.32087723462667        0.01529695129060
H           -4.19354936165475        2.81135971061514        0.01866151817758
H           -5.37254912271101        1.53867290874119        0.01640917092808
H           -2.74922011868636       -3.11194822614636       -0.00241110252491
H           -1.03408963951517       -2.58564939550743       -0.00350183586062
H            5.22237690425559       -0.26889756325213       -0.00546302273972
H            4.77352842159604        1.41064326691736        0.00106254726163
