29
 energy: -51.210244902216 gnorm: 0.000261156331 xtb: 6.6.1 (8d0f1dd)
N            5.34622443590513        1.18564253753669       -0.58649768318029
C            4.31696501657058        0.69682179274776       -0.44029600298752
C            3.04704058645471        0.11465538217476       -0.24801045679898
C            2.88316012979292       -1.19691440117535       -0.68955453969499
N            1.97746383831270       -2.04126105456399       -0.27557100373506
C            0.83141776596942       -1.80133267377030        0.31228437911346
N            0.31764365298278       -2.79429731002798        1.04847365162565
C            0.03690405456159       -0.59831431451878        0.13189859830128
C            0.63699652561235        0.69437173087674        0.23569986604587
C           -0.21216615346551        1.82884485823056        0.24149317596449
C           -1.57403696247810        1.74010389263014        0.09581765023197
C           -2.16812735906626        0.49176697693941       -0.03877888099639
C           -3.50167936469091        0.08452427532522       -0.20849902133027
C           -4.61277835885402        0.92203511311787       -0.25696586219553
N           -5.52632574397172        1.62175723474645       -0.29101184163832
C           -3.50304357650495       -1.32569314393496       -0.32690337903685
C           -2.21668786784298       -1.80342294416636       -0.20459882083228
C           -1.34543080632003       -0.70230773668515       -0.01822056536935
C            2.04741280442435        0.92165249160666        0.36221219985701
N            2.47220631945091        2.05060194314968        0.96100314966970
H            3.65211677701811       -1.62866717587147       -1.31982848429013
H           -0.60581310060700       -2.70917262988145        1.43717972508080
H            0.82672147767082       -3.65811134493510        1.13061540595116
H            0.22752246652954        2.81454371252995        0.27733452864700
H           -2.17934321717910        2.63449050787724        0.06698807487089
H           -4.38451311576577       -1.92122113837214       -0.48530600240778
H           -1.93304157379487       -2.83558232494378       -0.30813765192735
H            3.44673688378179        2.30235602300787        0.92229407890370
H            1.81855527881353        2.69948910674243        1.36187971257023
