25
 energy: -48.308389777451 gnorm: 0.000688650308 xtb: 6.6.1 (8d0f1dd)
N            5.15659829344807        1.79819637751623        0.00728742306715
C            4.15773087478379        1.23266430433740        0.00395037643703
C            2.94635465269069        0.50201411813200        0.00381641579474
C            1.77724243414043        1.25250123578174        0.00839722123472
C            0.44364159307443        0.84274268184482        0.00335387570023
C           -0.55421142547348        1.85716681166482        0.00187549536668
N           -1.84611094036276        1.66884675163926       -0.00145124062689
C           -2.27619058350775        0.41077053547501       -0.00239360322934
C           -3.56303727381147       -0.14884636142004       -0.00265181148587
C           -4.79820211247656        0.49933673207914       -0.00211157508815
N           -5.82639427093925        1.01173842460836       -0.00517564692564
C           -3.34717204691516       -1.54983674854217       -0.00256523199302
N           -2.06593564503212       -1.89326099474474       -0.00174451180842
C           -1.37057447808690       -0.73776871258221       -0.00102946016305
C            0.00696042496960       -0.53777444491481        0.00211148080625
C            0.83616215806620       -1.68896407479380        0.01129845560780
N            2.12073401954852       -1.85315483101492        0.00488152903564
C            3.08210645654459       -0.91864449477291       -0.00638848772282
N            4.31293871646182       -1.44546740665326       -0.02488543053327
H            1.93067925994473        2.32685859122140        0.01375743057549
H           -0.24002589571536        2.89338838466634        0.00272216705866
H           -4.11191628675783       -2.30605227677591       -0.00279536879492
H            0.27615618202213       -2.62112350234626        0.02339963936023
H            5.13863221363826       -0.86890950494227       -0.03201700289386
H            4.39156736724537       -2.44937384006326       -0.02951123007933
