28
 energy: -51.469860150955 gnorm: 0.000456300083 xtb: 6.6.1 (8d0f1dd)
N            5.16748469806179        0.97128808581622        0.16279993477734
C            4.15966142653431        0.42438542416979        0.09855220438251
C            2.91578693302931       -0.24635483498558        0.00754780050132
C            3.01491708546723       -1.57888887830529       -0.36422210437859
C            2.01053269903695       -2.53464526321298       -0.38550584878699
C            0.67432447584168       -2.32951466648355       -0.12561812127432
C           -0.06480128741475       -1.14616979368219        0.01722528314873
C            0.40542331742731        0.23001619513730        0.02334183441284
C            1.77069309035372        0.55555493204178        0.30554778080934
N            2.03648498880092        1.73027987485214        0.89560020045292
C           -0.54255912696698        1.27820806313989       -0.11956073083547
N           -0.12527373918473        2.60585594130074       -0.28564924580649
C           -1.93001602483249        1.04546655772311       -0.08266477284214
C           -2.82550107710016        2.11987992149184       -0.25652207080652
N           -3.51398561695352        3.02478160128861       -0.41550228888984
C           -2.40302152209787       -0.25074300025513        0.10414303185076
N           -3.63808820453847       -0.76299495201900        0.18273737811575
C           -3.42169994198375       -2.07871207928393        0.24448205411913
N           -2.14941702462785       -2.48804702625827        0.19800000551219
C           -1.44993584773394       -1.34228585629393        0.12619001470281
H            4.01900548298430       -1.91973518389372       -0.58838355340371
H            2.31755379872783       -3.54962864095986       -0.59620687645557
H            0.04159479411735       -3.20886250732992       -0.09004546487693
H            2.98725102963908        1.98924707007842        1.10601418115191
H            1.28536704335989        2.37555860712597        1.09483887206210
H           -0.89751150371883        3.22940481999433       -0.48774662703278
H            0.63765980825055        2.73730332584997       -0.93582723452949
H           -4.23338398987851       -2.77778838444662        0.32303361401985
