33
 energy: -58.101428611463 gnorm: 0.000802020254 xtb: 6.6.1 (8d0f1dd)
N           -5.37736943174437       -0.41911815962474       -0.02375896714649
C           -4.23361591881454       -0.26842076054294       -0.03275259335208
C           -2.84473155688444       -0.09440980853626       -0.02900010710586
C           -2.35834468598751        1.23379660982686       -0.09897552091468
N           -3.28481462147797        2.21876048273115       -0.22531661275363
C           -1.02573057268999        1.63615485395780       -0.04212780190772
C            0.16679814791307        0.90975244364471        0.02237574754914
C            1.37260301083949        1.65213232671737        0.07629786455156
C            1.32577404774619        3.05223245817329        0.14896960117154
N            1.35162466114950        4.20231176026750        0.22043581186520
C            2.66678997760100        1.07059067534548        0.05436946772394
N            3.76783600180182        1.85753560658805        0.07262341636763
C            2.74131478094413       -0.31701921501812       -0.02575361118935
C            3.82176846238061       -1.21938508507534       -0.09859874280035
C            3.32871621799379       -2.51295477407983       -0.16170247305553
C            1.92741999465130       -2.46534778677571       -0.12000775004181
N            1.04506667180300       -3.47958862495712       -0.12584014963126
C            1.53388819914136       -1.09015189660446       -0.03706923009535
C            0.25366065657335       -0.54828072565055        0.00872208884397
N           -0.75351131638437       -1.43346889396699        0.05907369763688
C           -2.05635629414118       -1.27322644963840        0.07954231250485
N           -2.73854193658142       -2.44909120773450        0.17241556946806
H           -2.99930470058184        3.18079810684098       -0.20548933356528
H           -4.26540821750478        1.99909247339550       -0.20884450606107
H           -0.89529183648607        2.71299032103364       -0.06963597668339
H            4.67653188625102        1.43803963611869        0.14000618373882
H            3.67325384476907        2.85020117686970        0.20041776207442
H            4.86480572242026       -0.95565383232398       -0.10904314750844
H            3.91766785702879       -3.40910419625434       -0.23123941018981
H            0.07756628628145       -3.17964630829865       -0.17911030659218
H            1.33450198565093       -4.41514879983404       -0.34877893164620
H           -3.73462345203931       -2.44469331641700        0.30672102310983
H           -2.22207967032214       -3.28344500857773        0.38634911833484
