28
 energy: -50.697820835685 gnorm: 0.000653905307 xtb: 6.6.1 (8d0f1dd)
N           -1.70547155884613       -3.84357099111432       -0.04689011471406
C           -1.08942556432860       -2.87413273991363       -0.03292574130219
C           -0.28589314363572       -1.71740530916964       -0.01798997501078
C            1.10859614988136       -1.86918471007968       -0.02273997238245
C            1.88399507830508       -0.73917659409305       -0.00833934309098
C            3.30522558502144       -0.50628285190848       -0.01126194058166
N            4.23799659284582       -1.47708634094621       -0.00112910854924
C            3.53477288517361        0.86902735668354        0.00905529096752
C            2.30250339253724        1.53570127687269        0.02385264148971
N            2.01710277159049        2.83291547578380        0.04247808340363
C            1.25598841267654        0.54531661875137        0.01144747099139
C           -0.11131898746728        0.74103150129657        0.01589967957983
N           -0.54078893587271        2.03860523906906        0.03394100801478
C           -1.78600634585437        2.43641812500658        0.03679170357743
N           -2.95241252041010        1.83239353726620        0.02626417693604
C           -3.11753802742219        0.49622129318529        0.01010435131951
N           -4.40874803721750        0.12110655611336        0.00390172373086
N           -2.27120893768540       -0.51865912145472       -0.00140147048693
C           -0.93582449790965       -0.46092489908572       -0.00035411819394
H            1.52495830003324       -2.86722237587122       -0.03593231267910
H            5.20943078380092       -1.24248012117590       -0.10195278096398
H            3.96101537539822       -2.43490905461592       -0.12010778506609
H            4.50128580289514        1.33790907378778        0.01277580983847
H            2.72834180932476        3.54245137105328        0.05615709405975
H            1.00928438155578        3.02532165937464        0.04885561586268
H           -1.88035291203132        3.52409994083697        0.05133210441169
H           -5.12458951882727        0.82463109475301        0.01215899983222
H           -4.62602101313145       -0.85949814560545       -0.00715880519414
