31
 energy: -54.637617125628 gnorm: 0.000866282110 xtb: 6.6.1 (8d0f1dd)
N            5.21271556186695       -0.82602209489174       -0.56175828593872
C            4.07593237850285       -0.85255282070987       -0.39452359605547
C            2.67820135344956       -0.86088851422180       -0.20354985041132
C            2.02709882070913       -2.05237230514446       -0.53994166393877
C            0.77087306229147       -2.42646056592725       -0.14406367196072
C           -0.21059948577575       -1.61143053668409        0.44258047130883
N           -1.14529072718552       -2.21005433450011        1.18949888316964
C           -0.34426876555277       -0.19272722564256        0.20948068115937
C            0.75191604911108        0.72780290745729        0.18435736487181
C            0.48679960316867        2.11955785779827        0.03784746767995
N            1.54956804534311        3.05610542148093       -0.02597773255845
C           -0.80279279591360        2.60701884041964       -0.05367452807579
C           -1.87348311383870        1.73212151009810       -0.06886254220617
N           -3.17548608740409        2.02043008033013       -0.25701864916061
C           -3.79986412501905        0.85394715218431       -0.32277371841595
C           -2.94175712740090       -0.25044800383333       -0.14784743198419
C           -3.33721669641679       -1.57490055060569       -0.26564757167420
N           -3.66687866273596       -2.67685456567618       -0.35901725063389
C           -1.64461027409885        0.31093100997468        0.04178291853820
C            2.12303717924056        0.31274400034894        0.35693656773442
N            2.96200349454144        1.13058117775037        1.01092253862127
H            2.64174716512094       -2.80285316211242       -1.02064676691760
H            0.50889075803154       -3.47092280029278       -0.25061709756810
H           -1.92769378609163       -1.68048252750443        1.53929695656639
H           -1.24107999899383       -3.21267367030050        1.18071020242678
H            2.23782885666284        2.82995790753722       -0.73489282022067
H            1.18793823113581        3.98705104999797       -0.19361629820590
H           -0.97991677058657        3.66655695656218       -0.16362851861887
H           -4.85977927650791        0.80410835422952       -0.49934813511982
H            3.94666080765003        0.91686407063779        1.03611233504715
H            2.64580794499540        2.05828469013959        1.26025850934159
