32
 energy: -54.372321484737 gnorm: 0.000571570777 xtb: 6.6.1 (8d0f1dd)
N           -3.51247504868752       -3.64978531227282       -0.16176533374091
C           -2.64604027426324       -2.89651798363236       -0.14207194774985
C           -1.58125586316210       -1.97421675236432       -0.12229402214805
C           -0.27328329216897       -2.41337852460672       -0.14514752408098
C            0.82940025138934       -1.53204860129747       -0.12391449898935
C            2.08336540747163       -2.14184823504720        0.07320321027010
C            3.31290165536724       -1.61270236426510        0.35712184222698
C            3.72110223846274       -0.26650060022182        0.29337077497641
N            5.00462374895379        0.00571425523264        0.64621444692443
C            2.96908877110230        0.77308824069498       -0.25066242501031
C            1.62672038605459        0.81962398607576       -0.60125899077497
N            1.24472599332299        1.84948984922051       -1.38217575868281
C            0.58653790950884       -0.11596817116441       -0.23101446681099
C           -0.72647675338716        0.33365173343961       -0.07495217774268
C           -1.29771522537206        1.63067369603598        0.10847499075681
C           -0.65462392237812        2.84354207564204        0.29958803405998
N           -0.14672735919205        3.86774293694257        0.46664082304350
C           -2.69922801321873        1.47381957653783        0.24758689950958
N           -3.58404435590911        2.50397831967758        0.38895737922190
C           -3.02182601143505        0.11509958421646        0.14045304791965
C           -1.83932661816936       -0.59416265398987       -0.01921276814279
H           -0.08264927140471       -3.47725392733038       -0.14202241977733
H            2.03895731235851       -3.22431110433621        0.11568605342587
H            4.08855821993017       -2.31560938726910        0.63564010019286
H            5.55982364038251       -0.69947699226157        1.09564549039472
H            5.32345165783672        0.95670176709101        0.68789283390305
H            3.52181602106330        1.68454395391316       -0.45146113159291
H            1.85392755411679        2.63795231580942       -1.51662488905044
H            0.26951861492258        1.98083991687361       -1.59180278225186
H           -3.21018485250150        3.39079184980141        0.68679129774329
H           -4.50277002748184        2.27560321150774        0.72955001476958
H           -4.00871310661236       -0.30360773195293        0.20200349380758
