25
 energy: -47.515059497319 gnorm: 0.000438793355 xtb: 6.6.1 (8d0f1dd)
N            0.54699792441169        3.15812555205564        0.50225833967962
C            0.80897502398072        2.04936614950230        0.31450091980662
C            1.14983714636285        0.72115091311797        0.05304780374710
C            2.55187949124106        0.42638548089376        0.14579794563938
N            3.34834678651069        1.32468992435378        0.75463906012994
N            3.18878959169005       -0.58798378629032       -0.41652652185020
C            2.59001377820440       -1.64967222855396       -0.91707554485046
N            1.46544266963332       -2.18979929616392       -0.57274228411770
C            0.40093060514485       -1.66230391892847        0.00734334005265
N           -0.44809573752123       -2.51562369189717        0.56217390616155
C           -1.70921718516842       -2.17078386852101        0.74299854144625
C           -2.19538727856218       -0.96562685074036        0.27352771528258
C           -3.47948728635428       -0.38587201592696        0.16447765943896
N           -3.42671465794546        0.84725771803852       -0.29794391943342
C           -2.11641813267438        1.16786991435671       -0.48369727340517
N           -1.83631697823313        2.34700909029403       -1.05351071790119
C           -1.26728294812010        0.06654390116069       -0.14316848352500
C            0.09922762147599       -0.21594491848743       -0.09777534239947
H            4.33977427932228        1.15977813233631        0.73537901892539
H            2.98964125053301        2.19985976205571        1.09615211208239
H            3.18819908625099       -2.22045484151441       -1.62123860954944
H           -2.34088307520023       -2.90660430483217        1.22255019572366
H           -4.42112377598699       -0.84317430604793        0.40733484630160
H           -0.93505453022425        2.78586062611761       -0.93249493908898
H           -2.63454148127148        2.95318871062105       -1.16892068149835
