34
 energy: -57.799927441191 gnorm: 0.000647744095 xtb: 6.6.1 (8d0f1dd)
N            0.05086194121882        4.67011062112668        0.43720748553805
C            0.10722181185515        3.53000403027070        0.29496811187403
C            0.20643216506717        2.13742603852441        0.13886292171800
C            1.44507011297745        1.51171141500990        0.22574118638730
N            2.57820775843234        2.31623920206595        0.42332835278491
C            1.57326811650463        0.09198861551156        0.04935286048839
C            2.77769427024737       -0.45575880697954       -0.45880680862878
N            3.80643314841527        0.37249539857301       -0.78689100066263
C            3.02888628339707       -1.81155843072185       -0.78069070940246
C            2.37575428832339       -2.95064092490333       -0.39803308665485
C            1.24138785279598       -3.06174752720893        0.39754365128686
C            0.36148121244665       -2.05243215402793        0.73081725246644
N           -0.59788517037485       -2.33185724537595        1.64396430328054
C            0.36142117061615       -0.69020111517054        0.22437681356539
C           -0.86007172917777       -0.06197465372161        0.03114753064593
C           -2.19453414225217       -0.55887714849624       -0.13038620299615
C           -2.61219139003467       -1.87837663382253       -0.20382387552169
N           -2.98571085284306       -2.96979511535318       -0.26085669351555
C           -3.03789305600796        0.54706772567505       -0.36616730835383
N           -4.39003490721030        0.47620003919917       -0.53703560166434
C           -2.27579165833369        1.72968212002919       -0.31445409384096
C           -0.95739693627851        1.37542182456671       -0.09835487791993
H            3.22218296846519        1.95721156080782        1.11584767141127
H            2.33420866543719        3.28319678737080        0.60223944672738
H            4.54097900917231       -0.00478872776347       -1.36105392070483
H            3.63586780782496        1.36797279765916       -0.82760548998969
H            3.93083722553478       -1.96326564649439       -1.36248922644538
H            2.83200025587949       -3.88418881076724       -0.70219818641996
H            0.99327443464491       -4.05007109309232        0.76117651214323
H           -0.80204089096934       -3.29315496196630        1.85975168645123
H           -1.33743181922289       -1.66720286878709        1.79998589501382
H           -4.84481408001760        1.27227473582904       -0.95137142692021
H           -4.77586770878886       -0.42478729274844       -0.76959934157993
H           -2.65873114424422        2.72593001368172       -0.43315597346166
