28
 energy: -46.677029060787 gnorm: 0.000420401321 xtb: 6.6.1 (8d0f1dd)
N           -5.19368452251064       -1.18991440095214        0.22818952808004
C           -4.19112941468429       -0.63494676118640        0.12372699138879
C           -2.94395389452050       -0.01603099048405        0.02362862318083
C           -2.68907809816570        1.34436307483993       -0.15842384791234
C           -1.30005842678297        1.51980351376947       -0.14798060175495
C           -0.48301710883822        2.63337595250502       -0.24155531383026
N            0.82633738062318        2.56278466647133       -0.13313584738087
C            1.45133688496910        1.37985082176502        0.00032024213469
C            2.83330401585246        1.51928611895887        0.18681777237526
C            3.83598032381163        0.57394916488670        0.31323711549766
C            3.77423099235470       -0.79398063130987        0.16406939551900
C            2.64475192527392       -1.57761976602083       -0.13407831819811
N            2.86261545825876       -2.91835941273374       -0.30587242899901
C            1.32066916246839       -1.14985210082466       -0.18516206482675
C            0.73281069375377        0.11143297803362       -0.02785406595179
C           -0.67043688455483        0.22000231194026        0.00707987228294
C           -1.70977918743851       -0.72019390978520        0.14081383553032
N           -1.62453941847769       -2.07777741103291        0.34962845800130
H           -3.42966504281503        2.11393088225484       -0.26854239157376
H           -0.88948278091138        3.62834995484561       -0.37937795197355
H            3.13703329602017        2.55594500529714        0.25486981576438
H            4.82242360505413        0.97245204354090        0.51783251796885
H            4.70682967082206       -1.33748331030388        0.25341697961158
H            3.80321997145272       -3.23990357536911       -0.45360848110792
H            2.12780150872634       -3.48245826354656       -0.69673359571384
H            0.61482591021062       -1.93875804227367       -0.41523945950867
H           -2.50980788156284       -2.51086424605314        0.57662860819723
H           -0.86148705088931       -2.38866222663245        0.93344607989898
