28
 energy: -47.486061422376 gnorm: 0.000975592759 xtb: 6.6.1 (8d0f1dd)
N           -2.41977522549107        4.05129432807788        0.00387241445673
C           -1.70779324724562        3.15198032787914        0.00048062431770
C           -0.83415079238745        2.04379096118213       -0.00059341436869
C            0.53832379749259        2.23639705626962        0.00014280116890
C            1.46312640202709        1.17861837396442        0.00026493302886
C            2.81093738501589        1.55506731866263        0.00689130082030
C            3.98542436310310        0.81908088092658        0.00889956891279
C            4.14394534726808       -0.55513716202090       -0.00303354746402
C            3.14268738483856       -1.52019171646230       -0.01829050475135
C            1.77386156261624       -1.34985168446694       -0.01764979857102
C            0.96221784007954       -0.20232023086185       -0.00398326556940
C           -0.42774665333997       -0.37937334128925        0.00120720960695
C           -1.23951118174893       -1.54454668841122        0.00837634265491
C           -0.88224486712608       -2.88716765353985        0.03368834110520
N           -0.67072118831373       -4.02076296016724        0.06877995235494
C           -2.60299601670257       -1.13579086081020        0.00933353799806
N           -3.65990347196641       -1.98439620992889       -0.03873011275672
C           -2.65618173532738        0.26295823415519        0.00442849226280
C           -1.34894291677740        0.74071207335458        0.00050581794169
H            0.91305139815588        3.25021696934232        0.00154190359161
H            2.96173183075119        2.62942257488448        0.01263370528119
H            4.89787760720170        1.40206041183659        0.01868031954495
H            5.16224872568678       -0.92227874060723       -0.00191648747069
H            3.48040146221049       -2.54870930133831       -0.03052386996473
H            1.21254923011726       -2.27562646679268       -0.02910202753429
H           -4.57747841810906       -1.62366541129622        0.15441016016835
H           -3.49724298653928       -2.96230305830759        0.13241392816998
H           -3.54851065998905        0.86033646096468        0.00368568566495
