26
 energy: -46.442569679884 gnorm: 0.000586517703 xtb: 6.6.1 (8d0f1dd)
N            3.88836309283514        1.42812562551984       -0.72412098509955
C            2.77285636844353        0.98058392398747       -0.12417058323675
N            1.92269541549894        1.94923738073962        0.26952778706957
C            0.65102174510337        1.76839827938738        0.43841979799511
C           -0.16530303401413        0.64534137274866        0.14187911827323
C            0.29104403418908       -0.71775975357839        0.02867452322247
C            1.64513326691182       -1.04722747595232        0.37626342918408
N            1.90641914214941       -2.24528243158256        0.91846400191168
N            2.71708947121789       -0.30590327849232        0.14182353248556
C           -0.67253941337292       -1.72185207442547       -0.25157482068784
N           -0.28906621160938       -3.06631785969202       -0.39927014803922
N           -1.97121954075902       -1.51758773070540       -0.36506823395074
C           -2.43032441483217       -0.28372031128032       -0.19670336249135
C           -3.71617330256383        0.25705642274862       -0.20498588532401
C           -3.53341383112164        1.61931894494696        0.00923896286777
N           -2.24648667084424        1.98872187071067        0.15999197223049
C           -1.54222153675245        0.85707784669662        0.05051550890426
H            4.62601229845757        0.78619080348447       -0.95065367314642
H            4.02280339151834        2.41927506216745       -0.81385923065179
H            0.10436764709128        2.64600892815381        0.76948635162203
H            2.85433801976652       -2.46375610417386        1.16999781923006
H            1.15551617899230       -2.90415130751233        1.05729007051287
H            0.47827134246639       -3.20920279070656       -1.04404523993895
H           -1.10080256565700       -3.60948280214652       -0.67039603589369
H           -4.64377035163343       -0.25806404596334       -0.35314783209847
H           -4.30236001238239        2.37104470281969        0.06646314964931
