29
 energy: -50.414016603063 gnorm: 0.000478843358 xtb: 6.6.1 (8d0f1dd)
N           -5.18802214229307       -1.33094830705098        0.00768744085199
C           -4.12621557762950       -0.88862907445842        0.00360345440907
C           -2.83091115425129       -0.33186158893661       -0.00009460406149
C           -1.78862600614189       -1.24538264201235        0.00052885076542
C           -0.40408270645769       -1.08505001092403       -0.00284061084905
C            0.34047087316812       -2.30606658258699        0.00058119699423
N            1.63233909625781       -2.43896464835524        0.00102787264054
C            2.34444781685205       -1.30187608440544       -0.00466829351816
C            3.70904588857803       -1.07920734221470       -0.00693233682661
C            3.85661614916769        0.32440313625666       -0.02153124474023
N            5.03166565357464        1.00985830664809        0.02849642418358
N            2.68212184312520        0.97400067822056       -0.02895368511605
C            1.71841383442779        0.01444426645743       -0.01470000329334
C            0.33516748663903        0.15335660274489       -0.00978266203850
C           -0.23805435613494        1.48367630913198       -0.00522817962556
N            0.64914403808883        2.47929015892272       -0.00897972232431
C           -1.58940097418359        1.84317199859821        0.00314186812572
C           -2.75471684615142        1.09150815264596        0.00122344197744
N           -3.93229586653299        1.76234472669806       -0.00718512801112
H           -2.11858463174404       -2.27981239036638        0.00472219367660
H           -0.21515162143177       -3.23672887415677        0.00379767583572
H            4.49776999142439       -1.80335029751175        0.00044464623148
H            4.99487580874464        1.98791400210099       -0.20431223463471
H            5.86625952671534        0.51438909230356       -0.23338561872390
H            0.33811418657069        3.43545414757044        0.00380934244422
H            1.65541884447720        2.21037568618357       -0.00911865392699
H           -1.75634280976661        2.91694213385678        0.00740891877142
H           -4.80251073898088        1.25944831746011        0.02011286990625
H           -3.94890881011181        2.76531468397962        0.02666880547630
