31
 energy: -55.443153133501 gnorm: 0.000410947790 xtb: 6.6.1 (8d0f1dd)
N           -5.84945655606950        0.13322418446808        0.60016191744060
C           -4.72015659649585        0.25099019156963        0.41798066901944
C           -3.34136734532137        0.34030197261459        0.21398259673190
C           -2.58944810726794        1.51057166902071        0.05405805389642
C           -1.24556638674403        1.14801020048423       -0.06056190272817
C           -0.09398824770412        1.91397475700348       -0.25444084773634
N           -0.13483574554738        3.24639958623522       -0.42070670578695
C            1.15530417814809        1.23006764464890       -0.22919020720089
C            2.29077536603449        2.03323658662900       -0.45290240254433
N            3.11702951194079        2.77847476251535       -0.74312493304615
C            1.26279717746443       -0.16182672858927       -0.08940758937015
C            2.53629299434790       -0.70947146500417        0.24839404860404
C            3.45262466223622        0.16302202217930        0.88769414053638
N            4.21102512078460        0.76303333263729        1.50676025109797
C            3.02319170997199       -2.00872238952049        0.13776171193017
C            2.40019350155132       -3.12879677123211       -0.38046465676780
C            1.06189480536919       -3.24269046905102       -0.73961397803487
C            0.04485489808070       -2.32696109264956       -0.57913634445343
C            0.06135828820976       -0.97230424669787       -0.18979786100002
C           -1.15454290924928       -0.29668097429081       -0.01390946797901
C           -2.47380603802059       -0.78050131212384        0.18107710407759
N           -2.89210397942454       -2.07246862794027        0.32110212527848
H           -2.99938871513041        2.50367660593890        0.04362559519681
H           -1.01499891360495        3.72868607599957       -0.41982135225904
H            0.71669031277420        3.76862299247656       -0.54426530942680
H            4.04789307353803       -2.13651813310224        0.46761444588992
H            3.01130444485899       -4.01406469268835       -0.49031620711504
H            0.76523250296975       -4.20109262767397       -1.14795383360105
H           -0.93307767943369       -2.67559478723618       -0.88444962426343
H           -3.85184496827522       -2.18363385986477        0.61481677590251
H           -2.24351389539123       -2.73413538405562        0.71834857861210
