26
 energy: -47.253415641946 gnorm: 0.000784286276 xtb: 6.6.1 (8d0f1dd)
N            0.22315137422727       -3.98330894913995       -1.19959389983755
C           -0.15613903481392       -2.94464581030225       -0.88926912937995
C           -0.64200369847654       -1.67367353570928       -0.52828414516376
C           -2.01346864654352       -1.45226700726964       -0.41995001146173
C           -2.48108432174595       -0.22587566924051        0.01809380484660
C           -3.78947705325368        0.26429419760550        0.22659872422835
C           -3.69942401004475        1.60218298275220        0.58998659079270
C           -2.35960776568347        1.98847850387627        0.60043670644415
C           -1.57733862904074        0.87105780568988        0.25380118117883
C           -0.20593267884821        0.72743034245621        0.02017425673309
N            0.55819029226518        1.78036677952059       -0.17085091927742
C            1.87022544433095        1.81309777097528       -0.38916108258986
N            2.30896512713325        2.90797309891963       -1.03697999619612
N            2.81515733876289        0.99211097085715        0.06113481051699
C            2.55135732828361       -0.25009138987718        0.44101876554391
N            3.50530522698056       -0.87347312018518        1.15600879958183
N            1.51880578565581       -1.02478241216196        0.10174494167015
C            0.28996558427971       -0.66424492854673       -0.17269314819187
H           -2.69642170310685       -2.26127702007102       -0.64072422776124
H           -4.69339389084965       -0.30430120180594        0.10578677618638
H           -4.53130626093603        2.24148974343355        0.82404942695472
H           -1.97736339288526        2.96144359940696        0.84638302003069
H            1.65308982247233        3.63320289270236       -1.26438495410734
H            3.29732760573218        3.06806406139198       -1.10875745575626
H            3.42842705122376       -1.86663775889050        1.28956465958946
H            4.38463018768575       -0.40958474258592        1.29831876972557
