30
 energy: -50.925266108796 gnorm: 0.000775707664 xtb: 6.6.1 (8d0f1dd)
N           -5.18073796142908       -0.50416551789352        0.21080811780690
C           -4.05071304785348       -0.71866660011164        0.19854543584280
C           -2.69232064965580       -1.03419608046813        0.18858578125594
C           -2.15614476326800       -2.32557363421726        0.40783615610256
C           -0.78291055000486       -2.27833058551342        0.31350170700957
C           -0.38775021174438       -0.94054182293824        0.05181995780591
C           -1.61211655287276       -0.16214233385524       -0.00011410814532
C           -1.53929729369849        1.22188210550491       -0.20822823585462
C           -2.69530057977681        2.02269092376410       -0.34665393346757
N           -3.59889981489634        2.71668800819559       -0.47593943487695
C           -0.29797132331398        1.82499156270864       -0.23900939330130
C            0.91300244841179        1.10429810841068       -0.13313997610201
C            2.06840553144030        1.90535989715565       -0.00433868432000
C            3.36957870017048        1.59073752845619        0.26735212857842
C            3.97504300372005        0.31961021682137        0.27704966931244
N            5.30002837478635        0.26963880342122        0.57222375048952
C            3.35845339308969       -0.86199343707310       -0.12813379732929
C            2.02417118868786       -1.15159645073075       -0.38135200527369
N            1.77473548705621       -2.37470717711520       -0.90201244080946
C            0.86466008795066       -0.33097764433169       -0.11510898245004
H           -2.74609495449455       -3.19912757706080        0.62015862716007
H           -0.13615733567661       -3.11293284435287        0.51624887037537
H           -0.24981509081667        2.90072107877964       -0.32853141617735
H            1.86110865135469        2.96892636305397       -0.03444722223066
H            4.03779321618150        2.42056761104595        0.46190235291368
H            5.77075663621240       -0.61297754450948        0.65331321498305
H            5.76786593137578        1.08900111861630        0.91473200168594
H            4.03387048446454       -1.70079486478575       -0.26627972622073
H            0.84618580052103       -2.59013331526334       -1.22529421436624
H            2.53821917667885       -2.95580681701649       -1.20075689099838
