30
 energy: -50.130639130993 gnorm: 0.000466748498 xtb: 6.6.1 (8d0f1dd)
N            5.43591928071652        0.16181750206394        0.07747821286170
C            4.29084391221069        0.29430581849653        0.06975131674468
C            2.89660088203686        0.42988589974817        0.05059254946061
C            2.38502567066852        1.73983837067543        0.06371962760248
C            1.08781242767871        2.16075720199800        0.02277973225980
C           -0.12105458203016        1.41216815798292       -0.01729341650992
C           -1.30594020558839        2.13183046515005       -0.05368073124709
C           -2.59003845392245        1.56128145639228       -0.05991957935734
N           -3.69137615026704        2.35795241710991       -0.14049922982656
C           -2.67322964813728        0.17271883451298       -0.01944368761149
C           -3.75469157111850       -0.73545230339799        0.02663283350180
C           -3.25848416987657       -2.02550008652014        0.07998622545328
C           -1.85323127220098       -1.97151056305808        0.06060799480627
N           -0.96646522725628       -2.98274701015815        0.06887611629487
C           -1.46452815489744       -0.59739065121280       -0.00083718430169
C           -0.18345451711390       -0.04900423550725       -0.00993632074155
N            0.82501347634550       -0.93349324778454       -0.02373055769437
C            2.13065262294060       -0.76673469442342       -0.01019013451357
N            2.82586373269142       -1.93954582596743       -0.02001970008097
H            3.14258087870766        2.51488265032979        0.09947761952133
H            0.94525373249427        3.23510705377613        0.02811110047078
H           -1.24291976857794        3.21258755813332       -0.07043961378977
H           -4.59136660832678        1.94914393266802        0.03685088542262
H           -3.59003126245629        3.34360502641418        0.02866808636051
H           -4.79854116277513       -0.47423753542328        0.02248317668277
H           -3.84297311986417       -2.92633986105385        0.12754098143485
H           -1.25248513428623       -3.91647012147223        0.30534888204201
H           -0.00425889132869       -2.66834362142428        0.15558454879500
H            2.32680280895982       -2.78795449012106       -0.22133513300665
H            3.82353163807356       -1.92442039512710       -0.14546554313439
