30
 energy: -54.927352908124 gnorm: 0.000747435329 xtb: 6.6.1 (8d0f1dd)
N            5.01412282347850        0.16368494815613       -0.13610493562352
C            3.88690243372808        0.39315726139233       -0.08914270939920
C            2.54794745120023        0.75993676286269       -0.04638906390656
C            2.07343913151717        2.11714743015196       -0.04217281916403
N            2.85896778991784        3.20852601820692       -0.03297549978444
N            0.74267352080476        2.19900886943562       -0.01292113866568
C            0.28834347834549        0.92688753396622       -0.00233675144619
C            1.38948138399845       -0.01678900680949       -0.01676315596610
C            1.11719176514120       -1.38906887586513        0.04196930969902
C            2.16963313310585       -2.32103268910323        0.11977263173999
N            2.99610098452816       -3.11485740966978        0.20377375929550
C           -0.21072818667439       -1.84544097464269        0.05627225910365
N           -0.42138662021094       -3.20700483862483        0.08716927643223
C           -1.30635128980001       -0.93474394710241       -0.02021461529993
C           -2.58888547666905       -1.45565548267291       -0.20708114504097
C           -3.82695298385955       -0.84354998197184       -0.21823289561649
C           -4.13259182995805        0.50819996760368        0.00584871183916
N           -5.42638319856513        0.86501560704191        0.12494128784759
N           -3.30218467590506        1.56145263927577        0.08045842807811
C           -2.00354029799098        1.53167400715998        0.03165723882819
C           -1.03929173192954        0.50173656411264        0.01484598548457
H            2.42878677683752        4.11032196784400       -0.13116340724309
H            3.84767210064015        3.10853425802593       -0.18002188442495
H            0.40813923440779       -3.76327860381731        0.23271485042506
H           -1.24053032490478       -3.55612121196794        0.55290504882970
H           -2.63343392087324       -2.52280811655788       -0.38422513349193
H           -4.68083224590440       -1.49040736239798       -0.37722257328021
H           -6.17216222237176        0.19756282988253        0.04846504493302
H           -5.63311717082997        1.84001351725460        0.25658630138198
H           -1.55496746700561        2.52248563243036        0.02903988703560
