31
 energy: -55.436867032458 gnorm: 0.000754177998 xtb: 6.6.1 (8d0f1dd)
N           -4.97277467793320       -1.18316804919124        0.50626942397622
C           -3.85382737028355       -0.98170133231366        0.32827267462874
C           -2.47982961437752       -0.74564045591538        0.12721936032833
C           -1.64081762087582       -1.87738373126226        0.21401474518955
N           -2.23492793833726       -3.06888413476174        0.47220749538112
C           -0.25704787304830       -1.91057496603781        0.00105065882755
C            0.70244083970976       -0.91239658144361       -0.07510816508356
C            0.43827178735701        0.51833952960676        0.02783823445741
C            1.51875799626829        1.37987321988699        0.31855224159164
C            1.29537152274263        2.70365682213130        0.75455965723340
N            1.19919466381698        3.74633695497079        1.22668127865414
C            2.85470536527671        0.95313423658937        0.30035485189825
C            3.13450140147365       -0.35083165547948       -0.02118275553285
C            4.35817241319883       -1.05730822573368       -0.15774602669399
C            4.05465360937069       -2.37769331415247       -0.41583572568640
C            2.66035127458083       -2.54024692233562       -0.43573098407676
C            2.05973677685561       -1.29661577921961       -0.20229520750959
C           -0.81696861777174        1.11192237783020       -0.25741938625260
C           -0.76926876549751        2.45121168485522       -0.71424017536518
N           -0.82446621121683        3.48350089942421       -1.21780200430143
C           -2.12662679647018        0.58077544386588       -0.22171428293713
N           -3.14799640948350        1.42265040514807       -0.50060019738172
H           -1.68111297610974       -3.90065814523933        0.56345702390122
H           -3.22448618778504       -3.12434747166022        0.63925242966170
H            0.14669997276989       -2.91482131500345       -0.02606683555074
H            3.63641653400448        1.66461174798482        0.52579983416519
H            5.33741261285181       -0.62516809460369       -0.07053555654614
H            4.76559993691600       -3.16663824967041       -0.58169599779476
H            2.16318601340081       -3.47457236294425       -0.62583607243119
H           -2.97020922507306        2.39508598515196       -0.68704811037989
H           -4.09989171383010        1.10402181122329       -0.43881462107037
