33
 energy: -58.879486613967 gnorm: 0.000692717470 xtb: 6.6.1 (8d0f1dd)
N           -5.38417649720359        0.04326744369392       -0.68310219058268
C           -4.28692209047216        0.31907782007983       -0.48169793130777
C           -2.93121948549910        0.62879453994148       -0.24166202078701
C           -2.53328808667658        1.92368058957020       -0.57577021971766
C           -1.39482622502947        2.55463026412045       -0.13577219806165
C           -0.28568234591884        1.95783649785161        0.47134602253957
N            0.48275140059238        2.71409587993218        1.26489312503425
C            0.14859280361238        0.59563620636086        0.22270359909265
C           -0.73782115006250       -0.52797607458299        0.22314823556014
C           -2.16431732481141       -0.39573789189034        0.36842234318540
N           -2.84181385390771       -1.34723687460237        1.03135059069579
C           -0.19510052759203       -1.84200612994222        0.11370999406603
N           -1.03633505384690       -2.97310346722650        0.07781272279576
C            1.18186970528300       -2.04502924299067        0.04256983752842
C            1.69395044661971       -3.35402233786148       -0.05185966874399
N            2.08783047861239       -4.43029436321502       -0.13282655696946
C            2.06080262668713       -0.95534982698260       -0.01361787991105
C            3.44154676972653       -0.88198194578101       -0.20090437674119
C            3.78031389436019        0.45651741954600       -0.32544061716239
C            2.63129757540619        1.25446528444696       -0.17885674810768
C            2.62037140299836        2.63181092915012       -0.35726009722923
N            2.60626716134287        3.77693256798924       -0.49968827855373
C            1.52083680152158        0.38349817378065        0.04298621605139
H           -3.27307922395704        2.52820408452579       -1.08454851393850
H           -1.36353497051239        3.63277543413684       -0.21972994961895
H            1.35501673274204        2.35063983312551        1.61480452597413
H            0.36999198012329        3.71524270303566        1.27441362036109
H           -3.84956179280854       -1.33376263036074        1.02948887748377
H           -2.35733213254312       -2.17997565431544        1.33631888266505
H           -0.50168082352403       -3.82408402161603       -0.05662743645437
H           -1.77476675453475       -2.91282139583572       -0.61271590587503
H            4.10957927446994       -1.71896773224100       -0.27678183696860
H            4.76419086460240        0.84556611955693       -0.51694131110251
