32
 energy: -54.368256634305 gnorm: 0.000907871361 xtb: 6.6.1 (8d0f1dd)
N            3.75408031575512       -3.32289134659485        0.39983439648628
C            3.24476540796790       -2.29799815097008        0.28513311897552
C            2.64449155148382       -1.02963145486919        0.14378670931198
C            1.26618279900231       -1.03509620916079       -0.02464979848525
C            0.31809895710867       -0.01470979018868       -0.05621042542941
C            0.58370906376851        1.40861049918959        0.02108991199365
C           -0.48359375923581        2.27732047263087        0.26779629100234
C           -1.80665717352745        1.86530931402637        0.34100010581092
C           -2.11137188655909        0.54447444500738        0.10552374617691
C           -3.34001669406086       -0.15361605354709        0.05486006714127
C           -4.61224132754512        0.37787185290837        0.21757173048808
N           -5.67775476056965        0.79508648203433        0.35630085117612
C           -3.03835723215646       -1.51343678373510       -0.17973779675879
N           -3.96017458112332       -2.49828153052322       -0.36581533752240
C           -1.64166443439053       -1.66548858513370       -0.26415217096308
C           -1.04381493530991       -0.41981601024416       -0.10056726299432
C            1.87845166042781        1.98922940330540       -0.21093219254151
N            1.90081679709235        3.31410769497876       -0.52838271739379
C            3.13303610287566        1.39999722553524       -0.09555779959220
C            3.51964410361972        0.08737023660148        0.15505201304844
N            4.83919315293946       -0.15605430161616        0.34887228162673
H            0.84501118023385       -2.03210410325307       -0.06277755898753
H           -0.28320874702424        3.32093607703369        0.46077950644514
H           -2.58641344376660        2.58111826356901        0.55766745477428
H           -3.65863608810897       -3.45412425978243       -0.28449022842767
H           -4.91122838227354       -2.29753998552683       -0.10394682174535
H           -1.16051369857818       -2.60898431063800       -0.44689528421550
H            2.77696476303875        3.73664707470857       -0.78169706417541
H            1.06412094394728        3.76060505389372       -0.85681222899696
H            3.96367911991733        2.09068662055781       -0.20767518791485
H            5.16674438645593       -1.09881841055405        0.46942435706551
H            5.50661765939853        0.59297992475998        0.32544160602474
