28
 energy: -46.663969953559 gnorm: 0.000597514373 xtb: 6.6.1 (8d0f1dd)
N           -4.28733607344843       -2.41225233973289        0.57991306533656
C           -3.48491289982205       -1.61242049947119        0.39718564911345
C           -2.50142679428307       -0.62012943388298        0.17468955719080
C           -2.95926933792789        0.69704485222549        0.09268270242978
C           -2.21739863701727        1.81208620213624       -0.20712183649579
C           -0.82685795212530        1.98306606205888       -0.32726540090503
N           -0.44813081552207        3.17822123134966       -0.82471341908722
C            0.21532400406598        1.05307536014169        0.01638874030056
C            1.50617580563312        1.53540356070924        0.31995449650209
N            1.72453956692823        2.90550468680320        0.59465163120664
C            2.62804593016826        0.70397269947217        0.33755623927029
C            2.50067157670890       -0.62908392143937        0.03380337149445
N            3.45490271426286       -1.57941912478811       -0.04212953004999
C            2.80305714106496       -2.71319777470488       -0.27931468507854
C            1.40940139575879       -2.55651804233227       -0.35176435703614
C            1.17496681282807       -1.19618811992708       -0.16700095679260
C            0.01600391859135       -0.38968624781207       -0.07418097379326
C           -1.19515607673347       -1.07276178058310       -0.00336056467136
H           -4.02676064315271        0.83824569705706        0.20933276604090
H           -2.78774661088451        2.71901825199916       -0.37567238218978
H            0.53208857899592        3.40970268716171       -0.88226452503890
H           -1.14125612975960        3.85661869724005       -1.08679638060088
H            1.05472648814408        3.30028097993048        1.24262961557806
H            2.66875083634716        3.06610696102773        0.92106545733243
H            3.59840811491065        1.11722808433304        0.57317931647566
H            3.34905924388830       -3.63302097158474       -0.39847910977479
H            0.70423782800634       -3.34406523876587       -0.53802137501003
H           -1.09746667962654       -2.15135807992134       -0.02144502664734
