33
 energy: -58.100826233643 gnorm: 0.000711595368 xtb: 6.6.1 (8d0f1dd)
N            5.52598294609007        1.26202751985821       -0.20088219136758
C            4.46016704306401        0.82790685592777       -0.15107762139520
C            3.17375220454483        0.30224493665181       -0.08381236866723
C            2.85049512618210       -1.07355249315861       -0.01569427388296
N            3.74128921329715       -2.08930310651529       -0.05039747500430
C            1.43659407874672       -1.19080180951186        0.03849589551280
C            0.58537745039259       -2.26870625086892        0.11677158911504
C           -0.78933155998080       -2.03597975793879        0.13093702727946
C           -1.61799338318400       -3.16877519352273        0.19944599976323
N           -2.26539824713339       -4.11876265153271        0.25735968846002
C           -1.37697722152994       -0.73171049025695        0.06471356031726
C           -2.76465657081386       -0.66613080155893       -0.00830577687125
C           -3.62945603778919        0.43599650517560       -0.10746859308804
N           -4.95912431099322        0.14456529659497       -0.18569854179717
C           -3.27367703334423        1.78002613608849       -0.07077811885523
C           -1.98350840360899        2.30989808913188        0.07488443166868
N           -1.89501250026088        3.67663578777905        0.14222946769056
N           -0.80416096773155        1.72221894166722        0.09234465926497
C           -0.48132773272537        0.41572105112030        0.04651807757910
C            0.88355908464536        0.14000937422142        0.01190411172525
C            1.97225567618573        1.05273495552188       -0.06180257890643
N            1.81852886232676        2.38083742744091       -0.08585663795405
H            3.43344360348065       -3.02247125775320        0.15745446536830
H            4.72112804524785       -1.88152060472503        0.03893986711986
H            0.94451994979906       -3.28816272294754        0.15671573211816
H           -3.26909852088138       -1.62610544810835       -0.01342831669532
H           -5.24527003449180       -0.80522233555964       -0.34466092724850
H           -5.61366072377177        0.87183220418001       -0.41227252033678
H           -4.08088946774752        2.49914282360137       -0.12896273505418
H           -2.71918191881557        4.20799661865073        0.36012240449833
H           -1.01355860591697        4.06374383238981        0.43333469800786
H            0.84385062559640        2.67116289810019       -0.10884745833602
H            2.59619016902201        2.99807504675708       -0.23881515123030
