27
 energy: -46.163481031540 gnorm: 0.000786097030 xtb: 6.6.1 (8d0f1dd)
N           -4.60329140544371        0.76848490407199       -0.14265440634865
C           -3.33125879837802        0.31070822797355       -0.10795049264176
N           -3.04127283840500       -0.97928024622312        0.08568531286910
C           -1.69293903467047       -0.99470512248268        0.10583607640365
C           -0.79003625617592       -2.01257493801518        0.30822715448733
C            0.58018791829286       -1.73807998631072        0.24657622126318
N            1.47220922854023       -2.82399243077870        0.36639102747717
C            1.06960846431237       -0.44106046989507        0.03607881906533
C            2.45980767491206       -0.21349415935533       -0.27800286941907
N            3.11929594998371       -1.15325099923474       -0.97730533120599
N            3.20246856752392        0.80366933996091        0.10664724114949
C            2.87261980042523        2.02884515803003        0.42627572803824
C            1.67147654854825        2.67705781830682        0.17066859661323
C            0.47261810182082        2.04001820058217       -0.10542833102373
C            0.15248564494676        0.68089880152837       -0.06199970697912
C           -1.21961761341778        0.36347022500257       -0.09874699614439
N           -2.28042702652715        1.16530300445620       -0.22264443322230
H           -4.74036086794459        1.69107407301672       -0.51619930573496
H           -5.32455525615844        0.08303211570508       -0.28308610337647
H           -1.12922544946832       -3.02289961192607        0.48675751483362
H            2.27952974220658       -2.62774218613394        0.94459024653819
H            0.99820169103267       -3.65963607205356        0.68454679334887
H            4.09142947678140       -1.00641381867869       -1.18717281844326
H            2.66502232848329       -2.02382116418748       -1.20076932507986
H            3.69228667917294        2.59891598488238        0.85317668394962
H            1.66069243872196        3.75474759158512        0.25423653246696
H           -0.39506231501560        2.67056224937329       -0.25774939368429
