29
 energy: -45.581057820042 gnorm: 0.000508043644 xtb: 6.6.1 (8d0f1dd)
N           -4.46815337256042        0.95391493494504       -0.35963734387989
C           -3.19183778477996        0.44176243487843       -0.25520710309163
C           -2.89417770209128       -0.93002927985926       -0.05831022541261
C           -1.52403794197062       -1.04951824811908        0.02554440210615
N           -0.79364739737741       -2.14897396527749        0.24959486824181
C            0.50714717653164       -2.03280852804607        0.23860032597185
N            1.21358770705408       -3.22174539521146        0.38115799580833
C            1.22762778981035       -0.80030025852631        0.00757193072266
C            2.56034376368865       -0.91513626517019       -0.35000564119737
C            3.51104392905228        0.05640188364709       -0.65403502846604
C            3.42033570382621        1.41349936416171       -0.43002944009423
C            2.35027695056458        2.11934844550503        0.10005508809079
C            1.03786841998243        1.71192601168903        0.32290532340138
N            0.20093810838994        2.64665771373238        0.84057334357789
C            0.44237661817793        0.42963649114898        0.04243768125690
C           -0.93330724736097        0.29037784313853       -0.06631868840969
C           -2.01909688988060        1.18458544402372       -0.23646294971533
H           -4.53992465266144        1.85580700128010       -0.80510662798683
H           -5.17107542988037        0.29472781415524       -0.65588480146034
H           -3.61070292638845       -1.72710341022120       -0.00652123978035
H            0.58526952838843       -3.98875920687742        0.57576032875043
H            2.00685398671710       -3.19466882756278        1.00396542063327
H            2.90622507181475       -1.93365379027241       -0.47610223175968
H            4.45130814327361       -0.30892022221264       -1.04629839029449
H            4.30731699085623        1.99822036295037       -0.64234546829423
H            2.54132086313620        3.16363358657939        0.32397674959809
H           -0.70343311458393        2.34621063874021        1.16898335318153
H            0.58823609585696        3.49915560544603        1.20738869497351
H           -1.96691248028593        2.23769536113533       -0.44992130637205
