27
 energy: -46.967146243803 gnorm: 0.000760517660 xtb: 6.6.1 (8d0f1dd)
N           -5.03751607204837       -2.19488139933281       -0.41892142810556
C           -4.07494257024057       -1.57169823008034       -0.33665693149469
C           -2.90412624656396       -0.81392490230792       -0.23353767718577
C           -2.84646948555089        0.56619942039410        0.02321192429898
C           -1.50020997407088        0.93860463950811        0.03446151097989
C           -0.86935684449901        2.17853217979370        0.24403790752052
N           -1.57930613092125        3.28901534449869        0.52482196292049
C            0.52519449526408        2.24365330505276        0.11786771482506
C            1.31347405687616        1.14386072131130       -0.17494964491087
N            2.57722999131305        1.39699007182346       -0.53274226835781
C            3.57418449368711        0.58143603623661       -0.67633368863437
N            3.79125373628723       -0.63911529082700       -0.21568971485530
C            2.84348054757808       -1.47904221264374        0.16623867948411
N            3.29814285890308       -2.62592696581333        0.71622523806868
C            1.43875867463915       -1.35276577436774       -0.00962465856690
C            0.70204254337294       -0.20104461691499       -0.18902358314693
C           -0.71079771270668       -0.24200191957858       -0.20360600301769
C           -1.59722851952409       -1.31075413377436       -0.36575710101427
H           -3.70234532977102        1.19686848637851        0.18442486639368
H           -2.58281999058914        3.26278010415644        0.49497878574411
H           -1.12188169290086        4.18229852528869        0.57380576449054
H            1.01670757531120        3.20299819772448        0.18203823952494
H            4.44212561449432        1.01682343864125       -1.16711363072873
H            4.29178723761928       -2.75256036786079        0.79451061167189
H            2.67809648907285       -3.37906447134909        0.94986534903876
H            0.87278597016291       -2.26566568341114        0.13097305526763
H           -1.35059224609507       -2.33307218334588       -0.58636737341062
