31
 energy: -53.847836908007 gnorm: 0.000774988267 xtb: 6.6.1 (8d0f1dd)
N            3.10203359130790        3.21580429652034        0.74879247460332
C            2.38596587653402        2.34756217812141        0.50779373911456
C            1.47849961994403        1.31258275546736        0.22970392411473
C            0.10198079752060        1.61106921778832        0.11121210022073
N           -0.28861884609505        2.95913294089132        0.18190835899120
C           -0.83700856509935        0.59928546381675       -0.10718400974078
C           -2.19278596514298        0.92986111380192       -0.49740052038108
N           -2.38737299619088        2.03251165918815       -1.24191093697858
N           -3.29181281999967        0.29031002910356       -0.16764489160528
C           -3.38396054435862       -0.94558252307174        0.30483288341116
N           -4.50322592539162       -1.23508454227138        1.00169773481541
N           -2.58447204506540       -1.97500367695262        0.04541982319850
C           -1.30987376926313       -1.87261688668674       -0.25472513972375
C           -0.42161657361436       -0.79114680711198       -0.16018781554941
C            0.96347992325125       -1.07083187572448       -0.15752997965741
C            1.68970514669647       -2.24422677904260       -0.24938856192153
C            3.06458190629626       -1.92395952839936       -0.12369049414865
N            4.07693077724900       -2.84128088876967       -0.12505088651618
C            3.20955244311436       -0.54617746398397        0.06508371875064
C            1.93554665982523        0.00871068658038        0.05418296482344
H           -1.14028295927109        3.11975055476075        0.70206209178052
H            0.46144796646580        3.55837496575626        0.50332345795777
H           -1.61647333751928        2.64352714848641       -1.45382808583810
H           -3.32582881634886        2.26877206710691       -1.51217254498215
H           -5.23506692516023       -0.54991907128729        1.05446199882621
H           -4.70421398848791       -2.20100218977270        1.18959863977030
H           -0.86796871672121       -2.83115260902697       -0.50416778779558
H            1.31437340106516       -3.24041648951549       -0.39311764370789
H            5.01088086460669       -2.49532815792196       -0.26897390903488
H            3.87866649803743       -3.74931533064675       -0.51056723614606
H            4.13401800081501       -0.01631410600412        0.19769277694871
