32
 energy: -58.378589226027 gnorm: 0.000976042300 xtb: 6.6.1 (8d0f1dd)
N           -5.48437012685741       -0.37132236114674       -0.53931336647799
C           -4.36788842400545       -0.18738319450287       -0.33123610707302
C           -3.00957908293775        0.06739036093554       -0.07433279621063
C           -2.19527140472753       -1.03145177202714        0.21881777045979
C           -0.81412523224240       -1.11588703607327        0.30605455137963
C           -0.19945691854615       -2.43240862381307        0.29917469347176
N           -0.96929118443956       -3.56038779367016        0.43917409544406
N            1.06736221399430       -2.65110942029576        0.05990514894688
C            1.87498733409927       -1.60067767875477       -0.14276354919962
C            3.22636838258740       -1.58841838350222       -0.41672547075957
C            3.65296031124186       -0.24098487381675       -0.45808598993999
N            4.92858872894037        0.17470506691301       -0.67012995668564
C            2.56663705019323        0.60883684747498       -0.16669345794274
C            2.62369454612801        1.99201301900240       -0.17634949374006
N            2.68589945433438        3.14594688231612       -0.16974161760483
C            1.41910047195617       -0.22163373367113        0.02971441459617
C            0.09211355697224        0.01086608843477        0.30322963637442
C           -0.38743548568519        1.32419699955197        0.72858108345716
N            0.37733203537155        1.99516222163887        1.59739550945060
N           -1.48414161337725        1.91598333331439        0.34626117280451
C           -2.57437310518678        1.41493945333866       -0.20731674285175
N           -3.36792282848296        2.30392075141004       -0.83225038569327
H           -2.73646616909375       -1.96943084993037        0.24089580354153
H           -1.75011822860882       -3.54006003492009        1.07322531457211
H           -0.41927598021552       -4.40512260844937        0.46208142213810
H            3.85290647343944       -2.44394691697233       -0.57640210991865
H            5.57943082316563       -0.47559435045195       -1.07501236168914
H            5.08122268394795        1.15234181388138       -0.85479434851411
H            0.14315738210647        2.95279913235010        1.80288734669977
H            1.31966029500256        1.68979815827959        1.77550945321574
H           -4.27122890671787        2.02946932727913       -1.17795571822682
H           -3.08239192376217        3.26717867727371       -0.86582980182736
