37
 energy: -71.381749259140 gnorm: 0.000752346947 xtb: 6.6.1 (8d0f1dd)
N           -4.98541748641771       -2.72009860105762        0.76418356881186
C           -4.10212157362665       -2.03039715517604        0.50596126750433
C           -3.02049525313718       -1.18215938070213        0.19191210228094
C           -3.22350532461727        0.18538173291718        0.47623362381787
N           -4.29065557925639        0.53523298897174        1.21700583810547
C           -2.46956861276249        1.22323727593040       -0.13073736227691
C           -3.12032392969036        2.47203684868426       -0.22095350606481
N           -3.67461228967491        3.47547176387438       -0.29610685214889
C           -1.18353255298248        1.13946763698125       -0.67431080185075
N           -0.77426995623311        2.11481788520792       -1.49558768807909
C           -0.22871609847079        0.09131819394790       -0.36943994027552
C           -0.56629942450103       -1.29722693175203       -0.37998452125596
C            0.46914403159868       -2.24732169046363       -0.31168096802007
C            1.80242141019852       -1.89800490608539       -0.16866700887359
C            2.76990513699035       -2.92356150723271       -0.09288597978418
N            3.51323429753229       -3.79574025010697       -0.05116233061187
C            2.14653653487700       -0.54585517039027       -0.06057826919452
C            3.37105505554277        0.09695378914050        0.17288278400646
C            4.63393464379752       -0.47310346109710        0.32548624518709
N            5.70218166273810       -0.87645173977043        0.46414419250369
C            3.11351300119843        1.48823499654766        0.28139477714774
N            4.04564549136580        2.44056292642983        0.49665975025752
C            1.73369080666064        1.71311229064589        0.07611124243777
C            1.14542831502885        2.96229886898049        0.22758121363385
N            0.68156862133090        4.01000533428001        0.35991675455022
C            1.10635489289295        0.45360641657071       -0.15659588135945
C           -1.90807798930999       -1.80625350371408       -0.41769565001689
N           -2.11416528481844       -3.03320414954962       -0.92865174559946
H           -4.93563997224539       -0.16524650282677        1.54416816810940
H           -4.53683319564590        1.50635197938552        1.31769467544793
H            0.18612152971985        2.14264044079586       -1.79763627290053
H           -1.31090245298840        2.96528464016381       -1.57952245560365
H            0.23692975334867       -3.30158770901681       -0.28367813047148
H            3.75096788384188        3.37769258711852        0.71150843675593
H            4.97322963307601        2.15806360309265        0.76346365219267
H           -1.36103816209311       -3.55611629074593       -1.33936209365285
H           -3.01328656196653       -3.47705377417812       -0.83379100710900
