27
 energy: -46.949800475901 gnorm: 0.000699998588 xtb: 6.6.1 (8d0f1dd)
N            2.65123575399842       -2.93127938439426        0.21866987690340
C            2.35427049703501       -1.82011269907692        0.12969139605621
C            2.07220260700248       -0.46344921608827        0.04327150759515
C            3.08499948646558        0.54273812143286       -0.02507886134703
N            4.41519079146904        0.27649824775766       -0.04517377820757
C            2.48524705466541        1.80023409494397       -0.11681991079099
C            1.10370364336642        1.61660425702850       -0.12037651024904
N            0.13715581115881        2.51848838680678       -0.22115637464382
C           -1.10345660748583        2.09764207717661       -0.13228133468249
C           -1.52872482909809        0.76105499869644        0.01447695340044
C           -2.92274367424590        0.49843966818174        0.17758120617444
N           -3.72061215058102        1.50179371794747        0.60078142219445
C           -3.57958617230920       -0.69204584861369       -0.20182078021780
C           -2.99157623908810       -1.90421424537745       -0.47539462283569
N           -1.80484601960948       -2.32453036296089       -0.07254750108913
C           -0.76973460925338       -1.63603251545019        0.27793064213045
C           -0.49672559949905       -0.25793138955136        0.05412105541811
C            0.82297920538364        0.18533518910834        0.00348826297952
H            4.72128957406718       -0.65437967691260        0.18097901664090
H            5.06320157875522        1.03137306287533        0.09276720991976
H            2.99725661915523        2.74076967849888       -0.17431699847019
H           -1.83677096232977        2.88516851762979       -0.26352927820326
H           -4.71781220152525        1.37809964449996        0.61499117683996
H           -3.34147798375543        2.39789205496825        0.84813231143275
H           -4.65630723891433       -0.62564060457844       -0.30356912930756
H           -3.59207350642221       -2.67988276753747       -0.93829579672887
H            0.03509828569373       -2.22622630290887        0.70603068488750
