36
 energy: -66.852466163407 gnorm: 0.000772949806 xtb: 6.6.1 (8d0f1dd)
N           -5.22960509675121       -3.04008331769249       -0.52177150248083
C           -4.25961948666999       -2.43383052463075       -0.40184534071206
C           -3.07218672363432       -1.69112695272367       -0.25901244619371
C           -1.89622442404553       -2.35797483133663       -0.61835539486273
C           -0.58850913544948       -1.96464883876591       -0.50436081242220
C           -0.03270607624923       -0.71073864882078       -0.16616888478686
C           -0.80037320380641        0.51407979391285       -0.07834162598749
C           -2.16675483893471        0.58253604332187        0.31522508003013
C           -2.54890698702956        1.79432363527728        0.93235512931299
N           -2.90761394959421        2.69901977045535        1.54669045484917
C           -3.19810426953159       -0.38116360459647        0.26967084796704
N           -4.41839165483793       -0.02296042171307        0.72668715431220
C           -0.13471695027341        1.73342870387325       -0.31252379291616
C           -0.86068223341940        2.89635421092351       -0.63061131546385
N           -1.34108909639998        3.86952583862633       -1.01250340511099
C            1.27987452523483        1.84844916807152       -0.37342703377276
N            1.85787396559874        3.05190014163031       -0.62737268575170
C            2.01718217324089        0.70255941597015       -0.09299193468271
C            3.40569162594238        0.49311303867152        0.07129590934917
N            4.39248099329601        1.43244917145281        0.06357957807920
C            3.61189948070419       -0.89503052927560        0.24021029512777
C            4.84016735807573       -1.50255708490486        0.49269864202257
N            5.85274213654563       -2.00037177914539        0.71977687705502
C            2.36497972749582       -1.55761880351170        0.19790921555430
N            2.21730299439713       -2.89573635588606        0.36961617811758
C            1.35320264985291       -0.57888548151085       -0.02184844244300
H           -2.05477588989864       -3.35952431424035       -1.00265612049860
H            0.13707686887885       -2.69888081785823       -0.82537848500491
H           -4.58655461025147        0.91297979031102        1.05535978282995
H           -5.18929964134261       -0.66525802160047        0.65492078700270
H            2.78976142441729        3.05884854147568       -1.00573828432578
H            1.24748292708071        3.79930887181037       -0.92338764331613
H            5.30779032957804        1.10492060829991        0.33581793317976
H            4.15742700345510        2.35647194656359        0.39013007643283
H            1.33501983650445       -3.24237664723239        0.70980971454841
H            3.03822036651829       -3.39932016150230        0.67032295866181
