31
 energy: -58.666844342762 gnorm: 0.000914524413 xtb: 6.6.1 (8d0f1dd)
N            4.81951799546936       -1.79534555035026       -0.25506106614266
C            3.78128628439353       -1.30541141275562       -0.17210097939382
C            2.50801415557642       -0.70961720641301       -0.07391059530189
C            2.51978789427726        0.68141417147293        0.20194988677277
N            3.70467308402305        1.21820599500555        0.56484710673423
C            1.43306310253826        1.56285186468101        0.04159871657348
C            1.74787627388147        2.93125700012647        0.17143930543900
N            2.01321863681614        4.04617308383013        0.27777037442469
C            0.07307609193350        1.28478320596034       -0.24770675049875
N           -0.71957216189407        2.31016368451016       -0.55098385269906
C           -0.57605482780130        0.00654541898076       -0.12316944796664
C            0.03475420217449       -1.28556034110908        0.00147057196528
C           -0.79558674645765       -2.37755422096321        0.33995702330202
N           -2.10088561692199       -2.37479866659500        0.47995597876313
C           -2.70789328304094       -1.22452753819239        0.23237999194541
N           -4.01361165569504       -0.95075032160722        0.22926977876140
C           -4.06361787476415        0.36071292666674       -0.04832056595533
N           -5.23117458600714        1.02790187376573       -0.10499530651180
N           -2.87715375828609        0.98291556237543       -0.23605543977811
C           -1.97118353483954       -0.00237180308855       -0.06801347246517
C            1.41430012669210       -1.57664408479367       -0.25798767419106
N            1.70478314983291       -2.82331654283470       -0.67951441545763
H            4.53091705350430        0.64554897555345        0.60304942143679
H            3.79722613103850        2.21457694942413        0.67146280149020
H           -0.35752191623641        3.25048463611485       -0.52908662844089
H           -1.74138744556136        2.12241451708253       -0.55160171359339
H           -0.34361763518748       -3.33157644990110        0.58543596834200
H           -6.06805186787884        0.47344385210651       -0.13265373051573
H           -5.23850078512068        1.94798539520946       -0.50682583329353
H            0.97250014996159       -3.49278647286466       -0.83365679243256
H            2.66298465628003       -3.11222465249769       -0.78894152141286
