28
 energy: -51.469560080580 gnorm: 0.000514474608 xtb: 6.6.1 (8d0f1dd)
N            4.76202609096715        1.92577420119072       -0.67637180125363
C            3.84142177560666        1.26461592889426       -0.48599595948148
C            2.73891427914891        0.42701213994300       -0.22595743860993
C            1.48222852785319        0.99872727437634       -0.25970913126218
C            0.20975731107622        0.45753716261013       -0.01653131669675
C           -0.87301747066894        1.36818131583541        0.11618242991838
N           -0.65808425816927        2.72039969673208        0.20525269418101
C           -2.21220074377583        0.91802028203434        0.11856587808328
C           -3.25486236568374        1.85666432517514        0.26090452239363
N           -4.05829162443854        2.66482678725443        0.39831649025052
C           -2.49202126367744       -0.43731274532968       -0.00078744467992
N           -3.67987013160863       -1.04898898899433       -0.03046321937880
C           -3.40514596543202       -2.35542953160776       -0.11583148017647
C           -2.03579895012481       -2.63969268147815       -0.14533944640960
C           -1.39250065142812       -1.40374874126218       -0.07877251303861
C           -0.05396854260178       -0.97911789275076       -0.05395165397466
C            0.93377363243303       -1.96837954329418       -0.14035778077724
N            2.22899873303404       -1.95582316382190        0.07038850782826
C            3.04334445897882       -0.92807198362771        0.15759047778646
N            4.28911070870046       -1.20633429384812        0.57508945553612
H            1.49645210609036        2.05465382793220       -0.50759293597026
H           -1.47578442097497        3.28542317290957        0.37549083987922
H            0.19442783173384        3.06683388199573        0.60817308420425
H           -4.21098271773157       -3.06678341718505       -0.15480563452752
H           -1.60165883791571       -3.61859226594413       -0.20217189010576
H            0.56758930801308       -2.97146577037035       -0.33423366100094
H            4.51750591239387       -2.16210487553987        0.78968867550112
H            5.01069379909774       -0.50534897812184        0.56858224907951
