28
 energy: -50.673478511517 gnorm: 0.000816001857 xtb: 6.6.1 (8d0f1dd)
N            5.48258545528458       -0.39667070032168       -0.20004246735521
C            4.37918001593076       -0.08006643322653       -0.16287421927641
C            3.02230841919058        0.29835835011218       -0.11117594987053
C            2.70422895292980        1.61780210609226       -0.44688268414851
N            1.60410075042719        2.25237578392602       -0.15588512418859
C            0.44039335266112        1.79141378235794        0.25340349568759
N           -0.33056680407092        2.67505366258282        0.89857489650389
C           -0.12094855803339        0.48535252662813       -0.01595438235870
C            0.71171753747755       -0.70675380640208        0.08474122773749
C            2.09099616491700       -0.71546379413028        0.18675177673131
C            0.01347091197469       -1.97996550268441        0.11181716646300
N            0.69709875365477       -3.16556077192937        0.18135451549158
N           -1.28935629353588       -2.11834365790680        0.07466106708036
C           -2.05100577641968       -1.04018869107746       -0.04384073276629
N           -3.36707221010719       -1.01950916240340       -0.06415143967080
C           -3.71262506406644        0.28858847077092       -0.24671590844570
N           -5.02822551625168        0.62297775664147       -0.29365395153313
C           -2.61637812225562        1.14971897424938       -0.27353648848308
C           -1.48751481822439        0.32301904331836       -0.14965387280823
H            3.46967553641066        2.23338922872518       -0.90780948189842
H            0.03432912831534        3.58995510958247        1.10098634918618
H           -1.25192132327804        2.40746902044468        1.20231672387198
H            2.55228210687168       -1.66428687850530        0.43315322924883
H            0.09342029297981       -3.96350177941300        0.05311544067643
H            1.61398367665660       -3.24735594797395       -0.22129034182055
H           -5.28143541367176        1.50429581988939       -0.70665132562967
H           -5.66360871467043       -0.14605853816015       -0.42728361671321
H           -2.65716058989320        2.20685987521243       -0.45850820621140
