32
 energy: -58.373699932327 gnorm: 0.000604393419 xtb: 6.6.1 (8d0f1dd)
N            3.40799529936515        1.99133984475904       -1.17989362934686
C            2.81639454154429        1.15903156042744       -0.64511100993298
C            2.18569637374251        0.01345168663115       -0.12550128971131
C            3.05209956293585       -1.09896295430924        0.03479971719290
N            4.37941918990306       -0.87586551506221       -0.10894222454382
C            2.66469719106790       -2.40627787433203        0.35770660624369
C            1.37972021919395       -2.91327723892554        0.44820517360674
N            0.20053751862083       -2.37491739704103        0.27384720102831
C           -0.10137501484046       -1.06807188660195        0.10897432725007
C            0.77997492906485        0.08744043940732        0.08917054608475
C            0.19957352969645        1.36992198970280        0.20210754681124
C            0.99147277720916        2.48560734157618        0.53026826197387
N            1.49946771469314        3.44404945290841        0.91695757930585
C           -1.19990179704472        1.62926482660244        0.12570729153704
N           -1.66943790456054        2.90487497041605        0.21009741926565
C           -2.01975329046575        0.53123048383375       -0.07890985193331
C           -3.41870932586006        0.31202369412680       -0.23406246706405
N           -4.39300140431658        1.25400611435835       -0.32968836319787
N           -3.72973971577291       -0.99391148560189       -0.23819024645828
C           -2.57501798476389       -1.66793293345626       -0.10793488656654
N           -2.46185479792615       -2.99317248771067       -0.07608269609372
C           -1.45185747963140       -0.78291726991234       -0.02845480307230
H            5.02480982903813       -1.64345288854423       -0.06305369116703
H            4.71735026026524        0.03103380576770       -0.38344763449434
H            3.47107609387570       -3.11367384530827        0.50280062220969
H            1.31389981501633       -3.97594148796407        0.67803392976056
H           -1.01528649033813        3.61319414210736        0.50808676443078
H           -2.62614651676454        3.03167013738063        0.49436460462725
H           -4.15228614607628        2.13109135667528       -0.76262197667895
H           -5.30076730590797        0.88408060503042       -0.56739030762842
H           -3.27705088078334       -3.57894598672027       -0.04949984334239
H           -1.51643318868061       -3.32623755252209        0.09257232960384
