26
 energy: -43.236092454935 gnorm: 0.000643596348 xtb: 6.6.1 (8d0f1dd)
N           -5.08419534320086       -1.07626120371718        0.21033996368972
C           -4.11706410893708       -0.45722025564043        0.12749998612682
C           -2.93638732234304        0.27352681259414        0.02400714041010
C           -2.81148044715210        1.66498064459878       -0.13037764051931
C           -1.46895536478646        2.00782259851870       -0.19909523868366
C           -0.70029050790688        0.83492469510626       -0.10228145774821
C           -1.62852592756523       -0.26681113302145        0.05468748746283
C           -1.15038428130958       -1.55088419992720        0.21585440438359
C            0.21408415210587       -1.77622768336290        0.16315632349108
C            1.15520826410377       -0.74700707953099        0.01006389755639
C            2.54116581594751       -1.11309989816477       -0.13197579077956
N            2.82234300459677       -2.37709047465429       -0.52105210454328
C            3.63817637113081       -0.32641000944861        0.24578635606972
C            3.64441693486559        1.02766331408367        0.51441673481790
N            2.76243375811697        1.92270130316563        0.11641733374436
C            1.54079976618300        1.73209031488795       -0.27548133101446
C            0.68664927378141        0.61294554612325       -0.09403839178671
H           -3.63863968451608        2.35032266993482       -0.18467731493378
H           -1.09769867382163        3.01135553788095       -0.29531535039953
H           -1.83108244393167       -2.37522551008540        0.37425714054603
H            0.55859017943429       -2.78958477945866        0.30942014028893
H            3.77927498784346       -2.67094640229281       -0.60718133878318
H            2.10204304194986       -2.98375503903407       -0.86808293418542
H            4.58269629006763       -0.84978471162831        0.33964760167571
H            4.52853206088817        1.45902998790867        0.97136815621946
H            1.08034726845569        2.61904721586409       -0.69907296000544
