25
 energy: -43.503653256440 gnorm: 0.000760307813 xtb: 6.6.1 (8d0f1dd)
N            3.12222693428230        2.69242510125118        0.15258034876527
C            2.75371975850658        1.60221737743699        0.10285786534533
C            2.35053887873095        0.27012616902018        0.04594486233974
C            3.24837814625987       -0.81963000376485       -0.03786731554793
C            2.54116081373401       -2.00302940078761       -0.10520535794866
C            1.16747347499056       -1.69509134653294       -0.07551775491262
C            0.04262232523420       -2.49092280107844       -0.12649622399261
C           -1.23083566984414       -1.92356889508253       -0.04591242718209
N           -2.33153134057923       -2.75943609096242       -0.01432657246023
C           -1.39623473757657       -0.52362689450013        0.04548688125160
C           -2.67765726409638       -0.00834481404943        0.37860702041398
N           -3.20531163966889        1.14336922402040        0.08562097641346
C           -2.55528033239856        2.18367314158397       -0.40855676258358
N           -1.32760095854236        2.53255061517641       -0.13715882522763
C           -0.34120542688179        1.75084413112227        0.22133045520239
C           -0.22529899719466        0.35095833973173        0.04492464029732
C            1.03449268132180       -0.25099504087806        0.02830098848129
H            4.31882678950977       -0.71773394311056       -0.04304514715027
H            2.95884254671416       -2.99010352015221       -0.17064927653917
H            0.13816570937722       -3.56522416967378       -0.20732600935335
H           -2.14540860370481       -3.72008770251911       -0.25381067502925
H           -3.19966595703001       -2.40729429813953       -0.38190707966911
H           -3.36239236136886       -0.68639965388684        0.88183147201018
H           -3.15534702229013        2.90377172912877       -0.95360905621842
H            0.53694710951547        2.28118239794673        0.57343925129427
