29
 energy: -51.182768874656 gnorm: 0.000880392483 xtb: 6.6.1 (8d0f1dd)
N           -5.03581116131024        1.62883603164489        0.60294237156723
C           -4.03707553024911        1.09242763081044        0.42326065407557
C           -2.79755248257818        0.44996690053693        0.19683810179286
C           -2.83995910572808       -0.92789731280262        0.03627749612064
C           -1.75423337513195       -1.78548549938352       -0.14846957187637
C           -2.06683889199296       -3.15741218122711       -0.30191303519365
N           -2.31138950524326       -4.27108769599448       -0.43217912314772
C           -0.38856082360730       -1.47719905988886       -0.14328692624618
C            0.28802092086737       -0.26544199323540       -0.06758433707485
C           -0.34701386377103        1.07515455766484       -0.08551420035557
C           -1.68758637364389        1.31918993784453        0.10622461972927
C            0.52600535908739        2.20980252717108       -0.23206804350527
N            0.01537795277020        3.47513361915890       -0.38856683238534
N            1.84339105638098        2.16407330318819       -0.16384056201661
C            2.43312368233691        0.98884693077379       -0.00476884392686
C            3.78261781027287        0.69975726717686        0.10570831500215
C            3.90906992411651       -0.70285552724324        0.18576010204717
N            5.07957986466894       -1.37956377169282        0.26551069915935
C            2.63181141899182       -1.29765876080913        0.12287526157241
C            1.68549978765850       -0.28274779163678        0.01155918158355
H           -3.82010385219061       -1.39030289293096        0.06947832923598
H            0.25775016700758       -2.34446909090948       -0.21124589856705
H           -1.96263854707910        2.36185842153150        0.22059191257094
H            0.73316975572131        4.16560623539242       -0.54686173455520
H           -0.82634056093178        3.60271833193743       -0.92332463875335
H            4.58657306295451        1.40885064281285        0.12089824702772
H            5.06389770844834       -2.36284224892873        0.47156898727302
H            5.92185563258061       -0.87170821397127        0.47024815047427
H            2.45535653599093       -2.35654663548490        0.16985532837570
