31
 energy: -57.878148282221 gnorm: 0.000432448592 xtb: 6.6.1 (8d0f1dd)
N           -5.04755374555600       -1.96551379245966        0.66176000073258
C           -4.05589635979046       -1.40128353656747        0.50139136040678
C           -2.86640697520321       -0.70652947971778        0.30905707191259
C           -2.75714795283075        0.70541846441117        0.17493619692160
N           -3.81168292626993        1.57016645914407        0.16481030905456
C           -1.39775428011653        1.02766172214691       -0.00443082104286
C           -0.69244848192413        2.17746479360042       -0.37645602003169
N           -1.30615282790327        3.36144491340151       -0.67551944457425
N            0.63562818497056        2.19161932259256       -0.39666827723369
C            1.35807195676614        1.10454287449926       -0.15369588679336
N            2.62831668394680        1.32537387954249        0.13905507654969
C            3.57168915249849        0.41659823541309        0.35286243846600
N            4.65230340186432        0.89540002130245        1.00746230449553
N            3.67698576992774       -0.84833975774289       -0.03972831026931
C            2.64511120852502       -1.58878604240571       -0.43310131657132
N            2.99559122964849       -2.77777330335561       -0.97849437884139
N            1.34011388283417       -1.41332330729391       -0.28090590015792
C            0.72555893144900       -0.23491960072235       -0.10790450237300
C           -0.64852716409485       -0.19960583205265        0.06376630342788
C           -1.57401690507932       -1.26803579333101        0.23084770020484
N           -1.19745929510003       -2.55172444947619        0.31774936348384
H           -3.62773188960721        2.51711063053714        0.45577033548014
H           -4.69665316249865        1.18955605749187        0.46483803466870
H           -2.23434537109999        3.31988718168911       -1.06343059507017
H           -0.68702598968835        4.05329039939864       -1.06947245947597
H            4.70194182414915        1.88517912693883        1.16917742507211
H            5.47688363406455        0.32567524517844        1.06151055775280
H            3.96616969043959       -3.03062429102949       -0.98594893267459
H            2.28898297924348       -3.46055457657117       -1.17929188970844
H           -0.21847542976817       -2.71676360906036        0.11781407961696
H           -1.87499213239809       -3.29384048699890        0.29713309127118
