30
 energy: -54.925803689958 gnorm: 0.000893765315 xtb: 6.6.1 (8d0f1dd)
N            1.66417382799996        3.49444269080939        1.06556780277057
C            1.08503430962998        2.58207116907817        0.67480386385081
C            0.22538228915984        1.52437263944626        0.31481970146076
C           -1.12932826505452        1.85879720032202        0.21624119883148
C           -2.02965056390541        0.85634606128786       -0.04107314744531
C           -3.44281986843272        0.80310384617134       -0.24475609411125
N           -4.28903303007734        1.84017795719796       -0.29401694564035
N           -3.86682604341511       -0.45723710390206       -0.41930182170441
C           -2.79247406971332       -1.25746689657185       -0.31493292202111
N           -2.93354907884632       -2.58950182551503       -0.46374676265894
C           -1.59498193744803       -0.51633594705174       -0.05685130593611
C           -0.27002844486435       -0.88139648345329        0.17316022476626
C            0.03832079723391       -2.21663303887841        0.54512191796287
C            1.26259384957962       -2.80188579859654        0.74289363782747
N            2.47917514642587       -2.41524754773392        0.39764393555515
C            2.82446732954375       -1.23263569283669       -0.08002719700015
N            4.07919733627661       -1.20580413276862       -0.57552903394356
C            2.08486313898035       -0.00445696470895       -0.06273108785559
C            2.84631577814336        1.10287750352494       -0.47967011676678
N            3.55212808748193        1.89696469634877       -0.92553898027736
C            0.70300677243565        0.19281890061686        0.16902485338557
H           -1.42509541800516        2.89178510089938        0.33185534160863
H           -5.27004234991290        1.65913737370446       -0.40820416202017
H           -3.96355894888577        2.77457832077661       -0.12907045690920
H           -2.13076400408011       -3.14111447485059       -0.71654971612736
H           -3.83637791027202       -2.89716036752585       -0.78807419830897
H           -0.81688324767337       -2.81648241187925        0.82544143350309
H            1.26356009781917       -3.79321866692813        1.18890525003770
H            4.51415016224161       -0.34390758746493       -0.85702824550363
H            4.62498718453551       -2.04574407461838       -0.49344211882982
