27
 energy: -46.949228557467 gnorm: 0.000476818298 xtb: 6.6.1 (8d0f1dd)
N            0.83747369039994       -3.87834712222889        0.47198947918964
C            0.56541328459903       -2.77205990851961        0.31158600274566
C            0.16871422665867       -1.43556947053568        0.15872943998629
C           -1.21659084177930       -1.12258559233096        0.18286300290014
N           -2.12244945602124       -2.11346265318065        0.37791378237758
C           -1.60233455744932        0.19482630609967       -0.08290688294856
C           -2.86988859862660        0.79942484621194       -0.21786675851740
N           -4.08726883549712        0.15722201885461       -0.25967473707616
C           -2.68358143036355        2.19759616152907       -0.26464828308398
C           -1.33842640303273        2.48250943079167       -0.16652703129976
C           -0.62865421257562        1.26539152642424       -0.06824663956799
C            0.71730984690786        0.98731590245003        0.11886578995404
N            1.57040573111707        1.83288000528127        0.65061810074608
C            2.87237534722405        1.82089054203408        0.73869954361554
C            3.76938409339492        1.10104871381527       -0.05413972126487
C            3.36732147925183        0.00124840019778       -0.80031310658489
N            2.27888625648854       -0.71259038119660       -0.63630881363918
C            1.12501281165694       -0.43669098449927       -0.09048868613318
H           -1.77400796033540       -3.01249107774817        0.67310363126959
H           -3.05091546626889       -1.85781903631309        0.66787328504155
H           -4.86126987878610        0.75612922092806       -0.50787294720019
H           -4.10229068486296       -0.72973544290218       -0.74111038878233
H           -3.47889263300402        2.91412274222335       -0.36511823502133
H           -0.88837606875517        3.45684700157773       -0.18133680250225
H            3.26516982492782        2.54940475672705        1.44189243361526
H            4.80432274567625        1.40975038998206       -0.08597878715541
H            4.05161616785482       -0.42297714607351       -1.52835855326400
