31
 energy: -53.847443407397 gnorm: 0.000613372010 xtb: 6.6.1 (8d0f1dd)
N           -2.64385120416437        3.66201648941431        0.21146570534152
C           -2.40174121689917        2.54018853688860        0.15144383004803
C           -2.18129406443635        1.14599509519651        0.08433769029980
C           -3.33699521406059        0.36459816646702        0.16705950367267
C           -3.48873723015447       -0.99216400257605        0.06491443046582
C           -2.48136751822678       -1.96032635525012       -0.14974945742525
N           -2.91630114885388       -3.25499257359084       -0.28487552069521
C           -1.11199726664915       -1.75656265323230       -0.16425591811897
C           -0.32736855960660       -0.59735864015277       -0.01348457811682
C           -0.81425488578079        0.77287234413564       -0.02028263658447
N           -0.00119925006781        1.82362098084388       -0.08424598974843
C            1.32549351424280        1.70369689753341       -0.12064191570723
N            2.01711940309228        2.87046566089599       -0.23455066088226
C            1.92311016094268        0.44864006679144       -0.05985951905297
C            3.23963544480008       -0.05697983735977       -0.04171631495882
N            4.40922078818500        0.64929702509488       -0.12644694420526
N            3.25145705621340       -1.38823344360917        0.14405242370371
C            1.97574583714893       -1.79342249938154        0.21504310723871
N            1.69515536565861       -3.12048587702830        0.40808469653688
C            1.06601112231854       -0.71029735437356        0.05638080986849
H           -4.24990046086812        0.93404288363851        0.30468120302826
H           -4.49899332475288       -1.37701747512362        0.12448818964948
H           -2.27117773987877       -3.93996370814935       -0.64038484463965
H           -3.88800455136536       -3.41107120056361       -0.49046505219770
H           -0.53233390384139       -2.65150817356240       -0.35504597486840
H            2.95545119007417        2.90327927943531        0.12642077333066
H            1.45252575640447        3.69764390412059       -0.11487568169805
H            4.39659254027519        1.45652091839724       -0.73080867201392
H            5.21986296639949        0.05819727836664       -0.23776798741222
H            0.88554229345687       -3.32155113841380        0.97659250972442
H            2.51777005199742       -3.65193624725244        0.65683340111517
