34
 energy: -62.619262081091 gnorm: 0.000752584884 xtb: 6.6.1 (8d0f1dd)
N           -5.21142547097403       -1.24573987701839        0.54547741099846
C           -4.12336351922681       -0.92089397423734        0.35828378612276
C           -2.79088397364106       -0.52497499384374        0.13286165099131
C           -2.50585371847735        0.83081235862893        0.41392965162399
N           -3.42656663533511        1.54581565761836        1.09151515045169
C           -1.39364188690463        1.51931498091958       -0.12123271412430
C           -1.52233429267062        2.92168530319741       -0.18130158701734
N           -1.65597596937614        4.06242919054556       -0.23330635070895
C           -0.19576702494146        0.97495990835179       -0.61988845562838
N            0.56931932317959        1.75999752888009       -1.39005672744238
C            0.30844654921579       -0.33850056372515       -0.30255370388408
C           -0.50266113801175       -1.51610947959119       -0.27277483358017
C            0.11736038028333       -2.77247678007827       -0.11313360638803
C            1.47130116073002       -2.92872273412985        0.07360980956166
C            2.27598154919100       -1.80152311156867        0.10538084241758
N            3.59541434650069       -1.73513868878225        0.34035220087412
C            3.90394689376321       -0.43594582326041        0.35027830672482
N            5.17526478779953       -0.00606747527307        0.52940271228042
C            2.77906735285970        0.40104592603790        0.08924730182775
C            2.83725977749275        1.78283554615849        0.14369908525959
N            2.92525272010797        2.93323935114983        0.19478597574097
C            1.68754561435206       -0.48766953139686       -0.08717691379470
C           -1.93260384890488       -1.51763740803269       -0.38776390972585
N           -2.52655754234428       -2.61036638038521       -0.90441943066560
H           -3.32108815728893        2.54318980778398        1.17885717680070
H           -4.30177906336456        1.12447423285043        1.35471037246219
H            1.48784568490814        1.44743596969025       -1.66008973879918
H            0.38122036667672        2.74895622663939       -1.45475571580741
H           -0.49833069524282       -3.65728948693844       -0.04314564005658
H            1.90139641598851       -3.90463750634015        0.23115849897360
H            5.32167250143374        0.96094505972155        0.76484693617465
H            5.83237490387089       -0.68103790678717        0.88064782997938
H           -3.52777285453545       -2.70944709993941       -0.86501707768410
H           -1.97552122351387       -3.37326082124607       -1.25544795585833
