26
 energy: -48.054356015372 gnorm: 0.000413708921 xtb: 6.6.1 (8d0f1dd)
N            4.86171593937572        0.73086597164413       -0.00312655254335
C            3.72151791931214        0.86886018598968       -0.00391956909980
C            2.34034652762828        1.07358320440142       -0.00513570396195
C            1.68127844828763        2.31957265488955       -0.00895036823809
N            0.36135574538125        2.19894357502642       -0.00934419647334
C            0.08043506123508        0.86527488444167       -0.00569459963637
C            1.31211295205602        0.11606399964177       -0.00302820649237
C            1.25965491365422       -1.28576213934552        0.00055018361526
C            2.43480650211658       -2.07239892292803        0.00328347953837
N            3.36671070207854       -2.73898060794226        0.00531935075669
C            0.02200278427701       -1.89479793816352        0.00130009247905
C           -1.20039602940498       -1.18237610173914       -0.00103999917728
C           -2.35886693938399       -1.99259723343168        0.00003269161422
C           -3.68707494717134       -1.65392282193758       -0.00045316900038
C           -4.23149254991225       -0.36165802957418       -0.00200162696194
N           -3.65850408447597        0.80388108224901       -0.00511386984953
C           -2.35344304325667        1.11316898961786       -0.00728377546953
N           -2.13582128867898        2.41641389694723       -0.01208172378539
C           -1.17888564385908        0.25359613347667       -0.00455169435863
H            2.14413232872114        3.28972104391368       -0.01143355648631
H           -0.01662492598024       -2.97456707152518        0.00391707040340
H           -2.15266023320384       -3.05687050167504        0.00192157697674
H           -4.40134149823810       -2.46598418138977        0.00104263036777
H           -5.31663166387435       -0.29433994400968       -0.00061897057959
H           -2.94022584112862        3.02347846203413       -0.01355927917909
H           -1.13853059775510        2.73985312598779       -0.01268469555785
