29
 energy: -50.406012849043 gnorm: 0.000590987754 xtb: 6.6.1 (8d0f1dd)
N           -4.10013977160993        1.89058460618335       -0.16841065881673
C           -3.10581745863316        1.31608121131015       -0.11038377169166
C           -1.86616076880571        0.65350708739177       -0.05184944238340
C           -0.69032625311854        1.40229635586408       -0.00201535905967
N           -0.76622384539539        2.81138852392384        0.03570418734845
C            0.57320807027156        0.76136561076167        0.03323465267896
C            1.77663582836577        1.53951963771600        0.20080889641681
N            1.75048524625178        2.64206391035657        0.96633983772186
N            2.91425363614660        1.31326527753971       -0.44149584104940
C            3.34445237149154        0.16199439652942       -0.87551993660839
N            3.04886533605410       -1.02107118051853       -0.39295764523851
C            1.92684404537672       -1.33426027649258        0.21953437236154
N            1.95348602580727       -2.41740639249334        1.00397798857197
C            0.64597982630766       -0.67105984498370        0.02153719181330
C           -0.52396941123077       -1.42077835728683       -0.03533008262061
C           -0.79387880163692       -2.80371219900264       -0.10801752228420
C           -2.16716804974048       -2.96835376744378       -0.17731605487753
C           -2.80641437372548       -1.72071835338824       -0.13396912788847
C           -1.82149357222440       -0.75014762573847       -0.07109986336787
H           -0.17348208291499        3.26419179549537       -0.64994476952690
H           -1.72375531211823        3.12967393277723       -0.06494983616859
H            2.56941642554888        3.22573207448607        0.99050514371080
H            0.86330498048801        2.98810175391126        1.30021005180632
H            4.15656933480261        0.19450958678053       -1.59289727083290
H            1.09808672517285       -2.76855855813470        1.40077195390979
H            2.81177135926187       -2.93372897375281        1.09591698253324
H           -0.07328987861601       -3.59908733024999       -0.17993685402602
H           -2.67204548114997       -3.91598348136158       -0.24976693877591
H           -3.86586886142746       -1.54752239527962       -0.16525899525616
