32
 energy: -59.158564371715 gnorm: 0.000953859540 xtb: 6.6.1 (8d0f1dd)
N           -4.80647055385273       -1.99185755712547        0.42196633023660
C           -3.74359856638194       -1.56932901988235        0.28540316365492
C           -2.43964774205782       -1.06380325983881        0.13566077947631
C           -1.38921814415042       -1.98944976054273        0.35098791730030
N           -1.75100355383591       -3.25637645998633        0.68285507373821
C           -0.02579545700674       -1.76320910187333        0.17112067394686
C            0.70997594162587       -0.58974953940803        0.00584749275416
C            0.16873429690422        0.75430448783415        0.06300101596301
C            1.04816506696255        1.82355737846247        0.37297530677190
C            0.54057990799299        3.07552732486968        0.78443523694244
N            0.21361363981715        4.08029932711420        1.23392283020444
C            2.43802640029512        1.67958980585400        0.40938244292750
C            2.97215927963014        0.45274604522816        0.09278380207901
C            4.29238264613795       -0.04827312751408       -0.04390232451679
N            4.29757949338087       -1.32984883385230       -0.35619015525175
C            3.00131121565910       -1.73739835203500       -0.42370388062249
N            2.73390095992102       -3.02839503540615       -0.74799247193183
C            2.10959690277655       -0.67673429901233       -0.13247774282742
C           -1.16969412829736        1.07951503557179       -0.27255995911687
C           -1.37581260143020        2.39024481918813       -0.76110209501986
N           -1.61546498505088        3.38474406985354       -1.28776158492311
C           -2.34339864316447        0.28784760335139       -0.26983526733167
N           -3.49682993656858        0.89052786128079       -0.63587764224379
H           -2.71273788439466       -3.47240460521223        0.88188194844747
H           -1.04817690744065       -3.92781153593687        0.93349168352246
H            0.58040929242358       -2.65104486560793        0.29847998711928
H            3.05793725419297        2.52696641974343        0.66200441126620
H            5.21107357669515        0.49796961875343        0.06268874910939
H            3.54535846974393       -3.54534125823015       -1.05289879650069
H            1.87444327452509       -3.22664416024384       -1.23577853183619
H           -3.50969799162037        1.87170944271590       -0.85880531072917
H           -4.36735849803183        0.38911900448764       -0.58626221020863
