32
 energy: -59.170771526741 gnorm: 0.000635211709 xtb: 6.6.1 (8d0f1dd)
N            5.86223313946245        1.08596975233305       -0.84550303482136
C            4.89142885700021        0.53738469562974       -0.56390307749292
C            3.68571196136820       -0.08922015207551       -0.24252669366012
C            3.50769334612271       -1.35918781761490        0.29140372223121
C            2.12567679372244       -1.60059154622805        0.40309785839583
C            1.43654662727702       -2.73071505157212        0.81516292285237
C            0.06421805967526       -2.75696172334471        0.69386915051531
C           -0.66225296311971       -1.65042695460591        0.23129629522900
N           -1.90905227606453       -1.89396496385153       -0.14482365140055
C           -2.90485306840907       -1.11477704047411       -0.46631914343333
N           -3.89618670138230       -1.70439599469425       -1.17267148894264
C           -3.09659708666711        0.24387566328249       -0.05968817249872
C           -4.41062636404910        0.73058186303847       -0.10066914811840
N           -5.49525258458244        1.11690443410472       -0.14377394842899
C           -2.08382010232753        1.11780177662116        0.36690315196807
N           -2.46891673994531        2.34877469687918        0.77781400679370
C           -0.68261887956013        0.85562234714843        0.32077797443581
C            0.10567542773542        1.95116446710735        0.70794982835203
N            0.71887967959788        2.87087585894778        1.03551961884303
C            0.01686295584223       -0.35782922005958        0.10558622744201
C            1.41489901614801       -0.41227423044271       -0.00687651331964
C            2.40452238674242        0.51617042330920       -0.45003514587077
N            2.26647160557312        1.66189241338996       -1.13716926973713
H            4.29083144282291       -2.04128307374241        0.56568938326134
H            1.97443697420489       -3.60377373938124        1.15363814467941
H           -0.49350784011205       -3.65771450105887        0.89504633083989
H           -4.78066512857355       -1.24219258495895       -1.29562980662265
H           -3.82838962304251       -2.69353849613238       -1.33708253363071
H           -3.44691627700697        2.58028659925627        0.81243486381929
H           -1.79350497402166        3.02555068881132        1.08809208193991
H            3.10331918929674        2.18638573738093       -1.33897827089842
H            1.39285589716904        2.15732100069342       -1.16661990071947
