26
 energy: -47.242200860011 gnorm: 0.000863877166 xtb: 6.6.1 (8d0f1dd)
N           -0.96284472073863       -3.19269826767509       -0.88883329169219
C           -0.26337714382824       -2.30877623351132       -0.64874839383108
C            0.62464637369925       -1.27086578167078       -0.33353463701469
C            1.97067316732108       -1.63460725964039       -0.50709569055492
N            3.07330449256478       -1.00960564479145       -0.20316603346387
C            3.08906051729219        0.25259362870601        0.26848785160326
N            4.19806691877476        0.57814622073002        0.95984502611030
N            2.24361168455585        1.22534040915241        0.02727548028736
C            0.94704126522044        1.20070550088639       -0.24919314809815
C            0.37891279504468        2.43156665111366       -0.62249666240479
C           -0.98022455873725        2.63773338244973       -0.60737591227682
C           -1.80447084793228        1.60391247211652       -0.18521295797175
C           -3.18792872333640        1.51623799081394        0.04660476275735
N           -3.54630492683879        0.31707439544539        0.48919391448684
C           -2.43684779937337       -0.45204332811848        0.52763727524058
N           -2.52932004118946       -1.66190067354266        1.09497882560769
C           -1.27556315288847        0.28935605072582        0.08780903795206
C            0.07952453240103        0.02831695793486       -0.08364748491487
H            2.13968619986809       -2.63232010102446       -0.90443693942332
H            4.94717489104998       -0.08915560649757        1.00718254139745
H            4.35388693222280        1.53820560585376        1.21134282821318
H            1.06250288607470        3.23324389591611       -0.85290923406594
H           -1.39668378505904        3.60229681003326       -0.85787241842071
H           -3.92311409981819        2.28770962485244       -0.09473002619533
H           -3.47221499655930       -1.94254011495703        1.31875677766434
H           -1.86986468399060       -2.39355710700074        0.87750380540706
