31
 energy: -53.849098878390 gnorm: 0.000893465464 xtb: 6.6.1 (8d0f1dd)
N            5.45034758352465       -0.68215098506981       -0.29996615810448
C            4.42115604793128       -0.16854952012552       -0.24274795951076
C            3.19095064128264        0.47763588089086       -0.16709840472614
C            2.98043834558777        1.87654411015141       -0.23139323074401
C            1.63671305571227        2.15955097203710       -0.11622009578101
C            0.93168014726866        0.93842407917330        0.01209881545723
C            1.92961615587152       -0.12184146683721       -0.05423211800113
N            1.61505971416449       -1.41371094480288       -0.03767749710150
C            0.35345701091723       -1.74638941805025        0.03744403863899
N            0.10339251916738       -3.13416566236356        0.00839896225499
C           -0.72102973978707       -0.81296157172940        0.17194344403218
C           -2.06594253826830       -1.28655586014598        0.34713672067388
N           -2.27240724634387       -2.43201370830710        1.01748986023797
N           -3.14219972256552       -0.75054808628247       -0.19461755536744
C           -3.37882916740655        0.50480943936913       -0.50770128925145
N           -4.49703439894412        0.71791083556703       -1.24040955054007
C           -2.69482512674377        1.61520776563602        0.02980373465671
C           -1.39243128574640        1.61176016992821        0.47790286093911
N           -0.93551374786110        2.68325994478044        1.15363614814430
C           -0.40502298773595        0.57605801320660        0.18601120554647
H            3.76646773296288        2.60120367427443       -0.35437680422119
H            1.21459772003025        3.14591969013337       -0.20694683581715
H           -0.54808616930175       -3.40805437400301       -0.71809387062908
H            0.99075894026737       -3.60925419055369       -0.11823798965661
H           -3.20321847818225       -2.81088564967413        1.04347438665413
H           -1.47491712430194       -2.99845209854208        1.26888628160772
H           -4.96924055496048       -0.07753701988868       -1.63129268737621
H           -4.71175140575357        1.63487086872055       -1.58687055209422
H           -3.24733808999382        2.54391235431997        0.09892302030894
H           -1.53016584827744        3.47569579370133        1.32034712350438
H            0.03129520918567        2.71876170298597        1.42945083826552
