34
 energy: -57.812857912786 gnorm: 0.000546738928 xtb: 6.6.1 (8d0f1dd)
N           -5.74333980154011       -0.98562531627169       -0.38528262118957
C           -4.67304640248732       -0.58221231320941       -0.25274280007471
C           -3.35822360914444       -0.14037772812031       -0.11643908105018
C           -2.92906916806403        1.18131269155066        0.06688332259678
C           -1.53494588041375        1.17580914322251        0.09494058875747
C           -0.61048144564420        2.22205443112159        0.20008831828576
N           -1.00547622333964        3.50148433731522        0.38317447657639
C            0.75873816225162        1.89916752088803        0.10126280863374
C            1.65634554844547        2.97609848380069        0.12252780299790
N            2.34300441525504        3.90169124450682        0.14165348196665
C            1.24765047602098        0.56706958969587       -0.01142750742513
C            2.61986328158313        0.42431565097067       -0.19222304425261
C            3.45472915550064       -0.69622701547853       -0.27510436869251
N            4.75620011745224       -0.44803418155229       -0.61392277295326
C            3.11045977928421       -2.02388403160815       -0.03125673775225
C            1.85398303309297       -2.54182153817220        0.27154023915385
N            1.78595807063314       -3.89147568549029        0.51229488093883
C            0.63063758468348       -1.86340589424870        0.26427799009117
C            0.29380021006252       -0.52998603142503        0.04707512812486
C           -1.07400665802920       -0.18704020582437       -0.03118164269601
C           -2.22516556644203       -0.98843431818991       -0.19149424624736
N           -2.30415155165947       -2.35342566046888       -0.39405125781771
H           -3.58261946669563        2.03068265293673        0.15033822174883
H           -1.98161619424243        3.72900974219711        0.33655371964462
H           -0.32923865736864        4.24508086375504        0.34660859201351
H            3.15090527045942        1.36429046356295       -0.30406964676105
H            5.44242963593220       -1.17176714541932       -0.49486542642768
H            5.08671270413870        0.50087787259843       -0.60977184537017
H            3.92439060072839       -2.73898172464516       -0.06172019187141
H            2.63646009568936       -4.38581879824775        0.71756472904056
H            0.94629704482593       -4.25881718016637        0.92561530762261
H           -0.21351316831330       -2.49636175681610        0.50391073965445
H           -1.58841048709534       -2.74105464878273       -0.99346731385190
H           -3.23511570706080       -2.66013377148290       -0.64630420991724
