32
 energy: -54.362473769851 gnorm: 0.000308924253 xtb: 6.6.1 (8d0f1dd)
N            2.69865260107651        3.85170462008563       -0.36121591026001
C            1.95020416148095        2.98731846758927       -0.23963284097948
C            1.01609576161979        1.94491759203329       -0.11398503734838
C           -0.34572677800971        2.21663468673795       -0.14924342800608
N           -0.77572178507001        3.52583452925533       -0.22312604463306
C           -1.30749457257515        1.15630303540265        0.01166294266260
C           -2.57093269565018        1.52550116608553        0.45640760829532
C           -3.67872481422726        0.75817484260356        0.79620286568300
C           -3.90342163683206       -0.57396503674332        0.50978696373043
C           -3.08047435490546       -1.43565395108990       -0.19522358928595
C           -1.75036381700049       -1.26828624797859       -0.57101008667302
N           -1.24132952661619       -2.17811945540515       -1.42595333475858
C           -0.84731502443373       -0.21386725365147       -0.15931836776913
C            0.50771496567674       -0.46720232503452       -0.02672127037939
C            1.27285396748967       -1.67563342062066        0.10795200051304
C            0.81302118908132       -2.97769729123824        0.22671717594290
N            0.45994190718448       -4.07365654123525        0.31970281590269
C            2.62465883967094       -1.31226027177493        0.26666095842282
N            3.66192240307039       -2.18681816323992        0.38790201912890
C            2.73644152277298        0.09260643622946        0.20296272171532
C            1.46699012987438        0.61568006356290        0.05404946996037
H           -0.04622715530677        4.20365191619790       -0.38696654609887
H           -1.63157068941053        3.70767662232281       -0.72073109138021
H           -2.68140995885140        2.58012545338092        0.67591197838490
H           -4.47911366804440        1.28550669423276        1.29804466256309
H           -4.86518646702365       -0.97456056281117        0.80390820269008
H           -3.51371181997108       -2.38820940794520       -0.47559066792783
H           -1.74016268327677       -3.03316055286540       -1.60473387742646
H           -0.25913616338965       -2.16601998560837       -1.64463016364719
H            4.53373640396480       -1.82922878432745        0.73989863403070
H            3.43857036530950       -3.13887560757429        0.62883857701707
H            3.65189551922201        0.64935811582389        0.27432774103002
