30
 energy: -55.717031969397 gnorm: 0.000639121507 xtb: 6.6.1 (8d0f1dd)
N            5.40263216108797        0.09791470357229        0.67051227942497
C            4.28608823804178       -0.09203015357845        0.47000028777393
C            2.93309907901212       -0.33029701103739        0.22631713758195
C            2.38054484432165       -1.56988038443277       -0.14883573949818
N            3.05814044869131       -2.71011294912766       -0.34899971885196
C            0.97256172724710       -1.39111032762336       -0.25020913922451
C           -0.05190024015027       -2.24705859173549       -0.57337902144848
N           -1.31659317343856       -1.87967954945467       -0.46110024198191
C           -1.64624462819889       -0.63168693695682       -0.13680757096240
C           -3.02824395011977       -0.49323196025509        0.19834557452951
C           -3.73790312454921       -1.71958438661752        0.23463099962225
N           -4.37561577544168       -2.67218499230485        0.28219726791269
C           -3.76272629320641        0.61976699477108        0.58631722235446
C           -3.40470023739104        1.95627526026035        0.53515082654586
C           -2.20780002804148        2.47295905080683        0.05921177080123
C           -1.02324082179333        1.81748327536923       -0.24103698809466
C           -0.05401025614717        2.63638298438796       -0.84575634480574
N            0.71533040036988        3.32311977366925       -1.35861029337115
C           -0.66305485381253        0.43033864918269       -0.07286171097753
C            0.66166342519806        0.00570219367789        0.01584615538883
C            1.90570283777094        0.64344665216527        0.33320134133968
N            2.13928778333862        1.87055133655912        0.82717862878804
H            2.57577301318677       -3.55164428504007       -0.60676503932000
H            4.05691689669526       -2.72770645163840       -0.23685627854394
H            0.10655423300347       -3.27038438578471       -0.88866144528485
H           -4.77347891687183        0.40671917900464        0.91545683614711
H           -4.16066226966628        2.67454643088319        0.81989219375822
H           -2.18311227097123        3.54683935135595       -0.09457646139888
H            1.46435211035733        2.61014551339065        0.73780957104440
H            3.10250346437759        2.14350915723154        0.94521805215122
