28
 energy: -50.688041314079 gnorm: 0.000908562828 xtb: 6.6.1 (8d0f1dd)
N            5.14855099079952       -0.77367627651611        0.48665260529251
C            4.06057385716542       -0.42500528033818        0.34720220250912
C            2.74254809985380        0.02849999063416        0.16115991386692
C            1.74804219206624       -0.94983578868586        0.15020673018497
C            0.37440290875964       -0.85935760526665       -0.02889304374109
C           -0.38391868608204       -2.06788939562142       -0.12670374872344
N            0.24902704206958       -3.29041279679377       -0.20411024806323
C           -1.77579662372210       -2.07001255803312       -0.09742309115419
C           -2.46529746818737       -0.87791155500422        0.00124476902836
N           -3.77422686964184       -0.60994961716418        0.04943823377663
C           -3.81313173084791        0.73758199182875        0.10066219043334
N           -4.97492858039781        1.40911830551139        0.12636340431445
N           -2.62383181424853        1.38131671747899        0.08931627018249
C           -1.73320215371662        0.38528148399626        0.03007070331984
C           -0.33486955972446        0.42563621093954       -0.01014806859175
C            0.24053646728959        1.69672048578957        0.02550157938442
N            1.47078230651173        2.14199233276321       -0.08412012262443
C            2.58782584117525        1.42861537371490       -0.08943579637914
N            3.69595936086909        2.15484055331638       -0.31654785201651
H            2.14251525779559       -1.94703627678003        0.31114374869529
H            1.14851910484949       -3.34598380032020       -0.64895292185383
H           -0.35708808970154       -4.07156038768618       -0.39617998283350
H           -2.31371896838978       -3.00495072241120       -0.15954201054110
H           -5.81872668944504        0.88669114477781        0.27649826622064
H           -4.95068837301251        2.39520706449910        0.31208892606179
H           -0.48878881087003        2.49775382560677        0.11468795176437
H            3.58772945848233        3.14519235841750       -0.45411518426631
H            4.61249841100871        1.74166962665677       -0.27711087754759
