27
 energy: -46.171551041540 gnorm: 0.000904508518 xtb: 6.6.1 (8d0f1dd)
N            4.64069348941967        0.55634033691282       -0.10012790699579
C            3.32786276266193        0.16057648347212       -0.12160049721437
C            2.20702630837216        1.00038111524477       -0.01564561652648
C            1.09956333806785        0.14760325842322       -0.00254393977436
C            1.67431139555141       -1.19328535268512       -0.11279264530048
C            0.85064636882035       -2.30272029795447       -0.17166416973349
C           -0.51868776671389       -2.12687137800779       -0.10722081999384
C           -1.11587845604982       -0.86298652162730       -0.02769725667680
C           -2.54646782808172       -0.77500814215910        0.12081239683926
N           -3.19707578689055       -1.77146341919003        0.74730633100183
N           -3.32834616706675        0.14648563664733       -0.41495960786351
C           -2.96082007083965        1.34941693469293       -0.78073971429198
N           -1.98081929909888        2.07239745871946       -0.31384694447277
C           -0.87097855183165        1.61277753231616        0.25110619265735
N           -0.18971115479336        2.50439967379463        0.98582695900050
C           -0.29295807101206        0.31592194840450        0.03049151842812
N            3.01201630799011       -1.14487664959830       -0.16270531490615
H            4.83678932473491        1.47653686925259       -0.46046764034531
H            5.28670950319729       -0.16161269576786       -0.38823195542296
H            2.24380082979947        2.07436789879136       -0.02619714644260
H            1.27698644498707       -3.28875684715853       -0.27147352550834
H           -1.15549506668312       -2.99790821851817       -0.18075459876937
H           -4.20196162471392       -1.74923547941760        0.76989368162834
H           -2.70023192501701       -2.55793494668149        1.12535583631585
H           -3.65348272103724        1.86735800328842       -1.43695130490539
H            0.70209880907230        2.25260552723266        1.37573823441382
H           -0.54820767324494        3.43888753827279        1.07668745545906
