27
 energy: -46.951938891020 gnorm: 0.000542857166 xtb: 6.6.1 (8d0f1dd)
N            3.31792930868509        2.90714776164364       -0.29819479910927
C            2.88619908193483        1.84576537907211       -0.20536909625993
C            2.40700816281071        0.52324017398430       -0.07650410176237
C            3.39524594262995       -0.44320757839820       -0.23390601564087
C            3.30191707316396       -1.81580792548797       -0.07259348846723
C            2.15210459018918       -2.51346841187543        0.30185979721442
N            0.90376029771129       -2.14242180136762        0.31391597071561
C            0.34503989508914       -0.95280563317579        0.10679623926659
C            0.99218281304071        0.36336683223198        0.10375493756521
C            0.21038277316984        1.50256652694560        0.19806100233721
C           -1.19656286247841        1.50072977610687        0.16556455014747
N           -1.88060111741048        2.66960141780422        0.26687578132596
C           -1.82545836533315        0.27446694871609       -0.03252377355564
C           -3.16331573998772       -0.16220753247560       -0.16515312476499
N           -4.30108573835710        0.59263538887891       -0.21662030559877
N           -3.23660771745054       -1.51151255581830       -0.20441155326729
C           -1.99766733788937       -1.97687689067286       -0.11654038162899
C           -1.04635714722179       -0.93695306726121       -0.02316537202042
H            4.38206169865275       -0.05287240415786       -0.46009656268627
H            4.21128584984913       -2.39009553364483       -0.18159777125024
H            2.28424353126524       -3.55420849228016        0.58966735248543
H            0.70240454868070        2.46249956580182        0.28038445539548
H           -1.36955667576951        3.48824274940425        0.55428452549202
H           -2.85355650816354        2.63125679870343        0.51843585775566
H           -4.24413877158427        1.47542880772920       -0.70071070108456
H           -5.12372048260394        0.04788230419896       -0.43164305762007
H           -1.80223446831961       -3.03187259850779       -0.13277135637963
