27
 energy: -47.755797358705 gnorm: 0.000794824026 xtb: 6.6.1 (8d0f1dd)
N           -4.68734338744579        2.16974179204602        0.00114093601244
C           -3.79868389167176        1.44309533197510       -0.00067945539919
C           -2.72101008672115        0.52353993707211        0.00030121729532
C           -1.46289792992034        1.09995482175280        0.00035783523874
C           -0.16798332675976        0.56248633217277        0.00047066869669
C            0.87966702730652        1.50102482738265        0.00040178965356
C            2.22296849999753        1.15006817472515        0.00034553523566
C            3.21086010682093        2.16030940771888       -0.00029661857512
N            3.98282486871677        3.00764982788427        0.00082743610955
C            2.56600334505985       -0.20415317861886        0.00040544977743
N            3.77206565379983       -0.76994328502378        0.00032668876703
C            3.55139075192610       -2.09323194953200        0.00031747093895
C            2.20033307474111       -2.42893008365278        0.00040424405268
C            1.50384212007036       -1.21112693878681        0.00044698321203
C            0.14638708080473       -0.85697624735272        0.00046654334298
C           -0.79651206168796       -1.90012952963122        0.00046246308442
C           -2.16880309631867       -1.91573523920582        0.00043951814191
C           -3.08323873345225       -0.85199469372059        0.00035542678186
N           -4.39804986422540       -1.15576378542597        0.00026510230052
H           -1.48882767208363        2.18579766687281        0.00023537035516
H            0.62864337861540        2.55250694330303        0.00031051641644
H            4.38645301676190       -2.77086159389244        0.00026191366666
H            1.80536992407258       -3.42662611425104        0.00039716107236
H           -0.34299727969229       -2.88321444279979        0.00046008411225
H           -2.62844061590480       -2.89756392572633        0.00041378515038
H           -5.09333658063557       -0.42814762367821        0.00018390423833
H           -4.69861878077423       -2.11431974600726        0.00028701972098
