35
 energy: -62.329729540392 gnorm: 0.000425270854 xtb: 6.6.1 (8d0f1dd)
N            4.78174615544950        1.19296293418934       -0.94582119121689
C            3.86108699139371        0.58637431988085       -0.61686865138606
C            2.75667639861548       -0.19195381839881       -0.21515556009564
C            3.08271257480520       -1.36446322976988        0.52424349142185
N            4.34878264902123       -1.46887712066779        0.99006418542427
C            2.22600473664963       -2.44577006180571        0.71798882917648
C            0.90364851047292       -2.58703898846331        0.34314843364689
C           -0.04389969477082       -1.65001985009906       -0.05911912123247
C           -1.39200822285826       -2.12117859048557       -0.22548121736496
N           -1.63780613157374       -3.47232649304921       -0.35002597261841
C           -2.46363584335188       -1.23713004940683       -0.15492089323545
C           -3.77961906786676       -1.70879846475535       -0.29477818152716
N           -4.84737767506600       -2.11440620011796       -0.42813227556047
C           -2.22958841847498        0.13839434157157        0.06256259918615
C           -3.09424357198876        1.19676904821940        0.25472365752849
C           -2.32436750889752        2.37439877955085        0.36546023907325
N           -2.81413223069409        3.62946361812380        0.54218329684710
C           -0.96119250822426        2.05485025257037        0.19280380968417
C            0.06667444299470        2.97232785896607        0.35100922121057
N            0.90173555054004        3.75837050852996        0.48354150164493
C           -0.86735205020308        0.63923665277462       -0.00051811908064
C            0.20329707175445       -0.22570636033424       -0.16632096324440
C            1.49309952325857        0.29574471385723       -0.56858798755235
N            1.45377830231761        1.34867671266693       -1.40472470835921
H            5.02133590848952       -0.74319652012683        0.81143080444119
H            4.65115215235909       -2.31058404630017        1.44590405935974
H            2.67630518105379       -3.30692209328728        1.19619038597365
H            0.50803956382752       -3.57971891559948        0.51672308975275
H           -0.97343686270292       -4.02321776075469       -0.86770514577141
H           -2.60272877496593       -3.71479256537752       -0.51954300380235
H           -4.16412482191670        1.14222137573149        0.32641153910737
H           -3.75809423813497        3.72668992388802        0.87450441056202
H           -2.16434297613740        4.35541839463571        0.79605041281075
H            0.57160043423722        1.78985272695271       -1.60508867345826
H            2.29311900198857        1.87078249729117       -1.60152663314478
