30
 energy: -54.918807903366 gnorm: 0.000693056038 xtb: 6.6.1 (8d0f1dd)
N            5.53123402899141       -0.74982146758267        0.33627952126696
C            4.39230928931083       -0.78353415402000        0.18018112140686
C            2.99870072934366       -0.79748778547035       -0.01557279886318
C            2.45112310003886       -1.94515336250695       -0.61935429860512
N            1.23133223908423       -2.36949267665596       -0.51183334474642
C            0.17107406581201       -1.73803528783474       -0.05627307837291
C           -0.09546847129726       -0.36796816376551       -0.03038064310455
C            0.92650766783791        0.67357383929588       -0.05117833040346
C            0.53059447774060        2.00986340741822       -0.23888725374013
N            1.47850779949991        3.03714763712040       -0.36394993267567
C           -0.81841921781200        2.38338973238910       -0.28733619503777
C           -1.80207164444493        1.44508063460920       -0.09726773849871
N           -3.14052412658944        1.62645437126398       -0.05772924297315
C           -3.66779803893506        0.41661072246261        0.07741745756476
N           -4.99357321924040        0.20625250095072        0.13523370719193
C           -2.66819315979188       -0.62616480879786        0.12839269874224
C           -2.97505324881055       -1.97140888814672        0.26255562190470
N           -3.30055996158503       -3.07103271065746        0.38432184326916
C           -1.44363484846507        0.04305727680723        0.03340804017936
C            2.28507589466310        0.37505100070449        0.32997067330680
N            2.96284576038965        1.31134461713480        1.01296806746180
H            3.12964403699982       -2.62046529446532       -1.13029797014968
H           -0.65002097568170       -2.40715829850209        0.18150829549060
H            2.29441250384380        2.79901615171236       -0.91144025928845
H            1.06245722078899        3.90204296944629       -0.68080673329368
H           -1.08172083168208        3.41745939228265       -0.45129138437491
H           -5.34924298282528       -0.71284985434912        0.32777198750800
H           -5.60442615587744        1.00175697150454        0.17743740720494
H            2.53509529872463        2.20408355624499        1.20311272779152
H            3.92320062976321        1.14912251630600        1.27056280113726
