30
 energy: -50.919355861127 gnorm: 0.000706450438 xtb: 6.6.1 (8d0f1dd)
N            5.74580673805520       -1.17137146236558        0.22161624112582
C            4.64207718183940       -0.86299358235337        0.12887782866978
C            3.28611328801002       -0.49971055990177        0.02353364689390
C            2.96412857892181        0.84318007809269        0.24473752853869
C            1.74236313885577        1.46439465629510        0.15505146001789
C            0.43501492973982        0.95362767106367       -0.02175752674337
C           -0.61259442166300        1.90621360491409       -0.06970534846678
C           -0.33406679680007        3.28586059571685       -0.08646699155153
N           -0.17101499950778        4.42371512123651       -0.10425073899516
C           -1.96782180436861        1.54629888703743       -0.10696394554150
C           -2.29972222934218        0.22258891656690       -0.03402752609800
C           -3.55876006668338       -0.45014626499940       -0.00157546888490
N           -4.77246372854180        0.15575756651690       -0.00183506560803
C           -3.30898328606283       -1.81464505451642        0.12071191636758
C           -1.92735902179053       -2.04078989790335        0.14356412302863
N           -1.35720586889208       -3.27328753713056        0.28619284394676
C           -1.25715196018621       -0.78592403370815        0.00681272262650
C            0.08971853459589       -0.44833092507576       -0.10563372210496
C            1.02759186676582       -1.48419682921884       -0.40920229465309
C            2.38937320641009       -1.51731202991770       -0.35921066203957
H            3.80550923197222        1.48637097822200        0.47635912260940
H            1.77229831252155        2.53935176013395        0.29310635925212
H           -2.71342952094468        2.32777683156848       -0.15964745209417
H           -4.82571234058788        1.12180647533620       -0.27411122735280
H           -5.58960691786378       -0.40837928703880       -0.15891039147221
H           -4.05825552589428       -2.58095444939744        0.20293476823482
H           -1.98464789149726       -4.00808357526730        0.57522582485977
H           -0.44040833347858       -3.31030512568567        0.70451437005641
H            0.56183260572121       -2.38882040588896       -0.77594727860671
H            2.85696856719469       -2.45719868723340       -0.63264380791544
