30
 energy: -50.908287587152 gnorm: 0.000548207083 xtb: 6.6.1 (8d0f1dd)
N            5.54262382552235       -0.65761510753989        0.76692557035445
C            4.52383256721847       -0.19973473159948        0.50087181501997
C            3.26761671973007        0.36003621270860        0.17226056733613
C            3.26878100920930        1.72045196707316       -0.15611289091906
C            2.16792433345593        2.50400846283055       -0.43138405252629
C            0.82331406107646        2.15900837324693       -0.36085533409625
C            0.17001104373030        0.94624692569658       -0.13713116163533
C            0.83995717097843       -0.37239848375274       -0.07866191305710
C            2.19916254032606       -0.54306014312840        0.15242581239500
C            0.04909479731279       -1.55146815436495       -0.17056651046282
N            0.64557286256325       -2.79375550976871       -0.25533815684117
C           -1.35236458530894       -1.49177905364250       -0.09577210977007
C           -2.10861058992060       -2.67658332079227       -0.16918921613043
N           -2.71428849286130       -3.65007765364144       -0.24888376007920
C           -2.00493978049260       -0.26418199993538        0.04487127952227
C           -3.34540887242175        0.06533474897715        0.16928220206089
C           -3.43353679298296        1.47014220542853        0.21221535006008
N           -4.59052140907327        2.18516784241827        0.28925126206205
C           -2.14389357217749        2.01876047890304        0.10003908598576
C           -1.22460101633531        0.96965638396160       -0.00097570208301
H            4.23950143298763        2.20054228163636       -0.17958359707275
H            2.37256350047095        3.53859578927082       -0.67575843973875
H            0.14723104414676        2.99139894955948       -0.50862832835643
H            2.50021208165115       -1.55909800138537        0.38432446823510
H            0.00944550231055       -3.56505227709228       -0.39191834984769
H            1.50595360458571       -2.87406134149051       -0.77091125881341
H           -4.16907184389342       -0.62147855286037        0.22117846814544
H           -4.52856913598235        3.15908021622308        0.53238872064976
H           -5.42067907028404        1.70219342352831        0.58771837680401
H           -1.93406669544204        3.07207051473138        0.11670756460041
