29
 energy: -50.405146008074 gnorm: 0.000855575239 xtb: 6.6.1 (8d0f1dd)
N           -0.69832581106836        4.10774300679006       -0.09658097765969
C           -0.57704810108208        2.96366935193545       -0.04970292585144
C           -0.54260129383841        1.55967203661526       -0.00909070018684
C           -1.80709255325517        0.90837720490560       -0.03557863778038
N           -2.95355321762304        1.63142027646133       -0.08328930222229
C           -1.80137642364301       -0.47740310429958        0.02381956779970
C           -2.81163501415282       -1.46883712203742        0.05780862522569
N           -4.17299618080457       -1.28661493470418        0.07930964198734
N           -2.28112805723712       -2.70103372952158        0.02921130990533
C           -0.95328009515006       -2.55839389755530       -0.00219331509112
C           -0.56021413832724       -1.21183900509180        0.00792017938415
C            0.69981690078698       -0.57759604699868        0.00666678399868
C            1.84341219419377       -1.37063279184311       -0.01927812534800
C            3.20851104441290       -1.04061097986887       -0.01484183168837
N            4.09331103227607       -2.06661024512462       -0.05509440920989
N            3.80854524108730        0.14798211632020        0.04619521073370
C            3.19236218632150        1.31032568263864        0.09377042010464
C            1.85788677215297        1.66653593823046        0.07640993589638
C            0.69089085264823        0.87681920993183        0.02778435633480
H           -2.88228501368427        2.62186317445297       -0.25844800985127
H           -3.79008971758470        1.16665595417374       -0.39287175598749
H           -4.66765575152731       -2.15865717143445        0.20616751644814
H           -4.51053609925526       -0.54443330594758        0.67452952898262
H           -0.33574937045509       -3.43797935489497       -0.02048300872415
H            1.64878039484184       -2.43542493365771       -0.05011914557063
H            5.07069117041072       -1.83854323764313       -0.09193133070323
H            3.79496398054345       -3.01710463505928       -0.17019203589658
H            3.89713371658166        2.13645337853269        0.14736881768712
H            1.67791697413082        2.73487548939482        0.10792538798354
