29
 energy: -50.406791658836 gnorm: 0.000578316632 xtb: 6.6.1 (8d0f1dd)
N            1.65225098452186       -3.91163080724401        0.25327266699269
C            1.06439080198277       -2.92350100866318        0.20406971797963
C            0.30279311059684       -1.74453891262053        0.13999211817434
C           -1.08338968974902       -1.88571933104902        0.13388552619396
C           -1.85550837759671       -0.75416983632629        0.02957337798917
C           -3.25307612928871       -0.50908439563520       -0.04312702208735
N           -4.24182275865720       -1.42610078853717       -0.05642995825890
N           -3.51598021971717        0.80101643093251       -0.17403167565582
C           -2.33979182839220        1.44781912903887       -0.16883558167905
N           -2.32598368243537        2.79735095536680       -0.30446194589880
C           -1.23616258100156        0.55236924189445       -0.01329675481449
C            0.14065202842644        0.72474073281622        0.10580441682569
C            0.67223755075239        2.02093682587942        0.34230074338784
C            1.97244408453148        2.46147790379339        0.37139525984317
N            3.12498078758838        1.87258197433518        0.09453683946489
C            3.27588676328191        0.57051679194523       -0.12426316919977
N            4.54569020690540        0.23195445770458       -0.45603310521243
C            2.34652239709574       -0.48206219232202       -0.01942688015637
C            0.95721368413929       -0.47288308905519        0.08478769169993
H           -1.51580350518263       -2.87544094858619        0.18816776296498
H           -4.04080168407105       -2.36969789631912        0.22186312979011
H           -5.18581293697926       -1.09071277512493        0.02430252311608
H           -3.21743586271343        3.19327859891093       -0.56088261900684
H           -1.51218467752935        3.22476157168828       -0.71593554277946
H           -0.06625339199755        2.76868728970043        0.59573127594423
H            2.11303831645942        3.50898292571926        0.63005840346069
H            4.83102170438355       -0.72889215626131       -0.50793698113554
H            5.24122669158573        0.95666215486339       -0.43223258325395
H            2.79202908925917       -1.46856715694543       -0.08900395338728
