30
 energy: -50.119777914930 gnorm: 0.000905332622 xtb: 6.6.1 (8d0f1dd)
N            2.44112615352309       -3.19169622804647       -0.30025383399258
C            2.31320037859280       -2.04957202634989       -0.18189267031585
C            2.24226529687868       -0.67049395341998       -0.05580836588551
C            3.41012545933651        0.15126880364429        0.00267805010704
N            4.68223388289694       -0.33937601474845        0.01544246053989
C            3.03246068236812        1.48709017968870        0.11073574042808
C            1.63800949915592        1.53539377731415        0.12094029523557
N            0.84341359034529        2.59067825212067        0.25183097581871
C           -0.45104828309139        2.38149250349858        0.18754662726679
C           -1.10175387075303        1.14027406342822        0.01086497561166
C           -2.51714436186664        1.14117228649012       -0.17978167655155
N           -3.10878467967720        2.33370394222194       -0.46325885255612
C           -3.41244905119052        0.07468829577345       -0.05351574658652
C           -3.20064590157116       -1.28260712306328        0.13632693017837
N           -4.29568813509977       -2.08075424769218        0.25940662608191
C           -1.94857528584604       -1.93784406420927        0.10824938599490
C           -0.70840759084686       -1.38774297793714       -0.00826260150864
C           -0.26778048362115       -0.04400682585418       -0.00789856138448
C            1.11639045802383        0.17779973219210        0.00460678501238
H            4.81361814216512       -1.29614727997221       -0.26903669144274
H            5.43331518232531        0.29887998351255       -0.18254594926918
H            3.69409856715905        2.32844253535416        0.17962479761769
H           -1.03233953546192        3.28225662492792        0.34403340725826
H           -4.09110933185034        2.35437781815512       -0.67272208587211
H           -2.55531062137814        3.11783661715651       -0.75303896940115
H           -4.45785645849159        0.36109828230920       -0.12394711243093
H           -4.17804871176477       -3.05281924288658        0.48080132990709
H           -5.20663951863828       -1.67634210565151        0.37871592911856
H           -1.99397007529501       -3.01806791704694        0.17088483022002
H            0.10274837597274       -2.10377269830891       -0.04575864259959
