28
 energy: -51.487843322219 gnorm: 0.000648848145 xtb: 6.6.1 (8d0f1dd)
N           -4.66041724062274        2.49246135296631       -0.34463772359344
C           -3.89042095349487        1.64753175486740       -0.24906540722997
C           -2.95666932088351        0.59031622877158       -0.13333607626942
C           -3.48574600150529       -0.71015744547739       -0.16863791180871
C           -2.82843540160156       -1.89529931724505        0.01004241035351
C           -1.45405716108068       -2.18299574480840        0.18317589169617
N           -1.20235601064096       -3.47184065035379        0.49082340522812
C           -0.34588863374756       -1.29357377075669        0.02907593795811
C            0.93265922236209       -1.84688252787497       -0.10365393234042
C            2.11680512735228       -1.10809024396525       -0.15000355428427
C            3.34466722304177       -1.77839698933081       -0.31897561279504
N            4.32381294228080       -2.36174345804461       -0.45181207744008
C            2.04414149542069        0.27677918073494       -0.01452669314593
N            2.97151907673542        1.23482213982482        0.00229962094490
C            2.24713268211776        2.36686826301477        0.10799323777060
N            2.82499678463256        3.57191951265031        0.19733898336706
N            0.90249589968872        2.21725474962082        0.14955721606128
C            0.73026227783425        0.89342695291344        0.08553249901360
C           -0.47247024659281        0.16011647744276        0.05364933813728
C           -1.62398678459853        0.94396124858109        0.01961939139022
H           -4.55920039834404       -0.77231838404822       -0.30373163957287
H           -3.46246695411782       -2.77487356169755        0.03279898893084
H           -0.27894247395998       -3.78895089096569        0.72342308490016
H           -1.96467920453035       -4.11848216311927        0.59779078119550
H            1.04924278900566       -2.91363863225170       -0.23391904256605
H            2.24508761456603        4.38895947966253        0.13944450264920
H            3.81483229527201        3.63636611451224        0.04435165174745
H           -1.41103997658924        2.00660967797735        0.06849737870252
