32
 energy: -53.564673904203 gnorm: 0.000766952906 xtb: 6.6.1 (8d0f1dd)
N           -5.28155972332972       -0.50277505637824        0.05477859978473
C           -4.14474279612350       -0.30832519318507        0.05314588590305
C           -2.76319097936680       -0.06689699497793        0.02780072319985
C           -2.35733013388765        1.27741220946999        0.21379687316849
N           -3.34253629218746        2.17685317054527        0.50315084489845
C           -1.06831794374135        1.78575644940972        0.11567447563650
C            0.18716684462145        1.18970627798155       -0.03459203141089
N            1.17451834613290        2.08226340849273       -0.13922917913841
C            2.45052097832077        1.70527949029516       -0.20785444385042
N            3.35028492179793        2.69985543116864       -0.41431182085101
C            2.82688617528364        0.36611607838143       -0.07720079009625
C            4.06278956873973       -0.29442874969483       -0.02578928581411
C            3.82206782445192       -1.64861723734506        0.16030681741930
C            2.44220047890619       -1.87202745277346        0.21956870723236
N            1.85226958006904       -3.10725321853480        0.42392055647496
C            1.78561595288917       -0.62113575560392        0.04451512686470
C            0.43550837607463       -0.25180419649070       -0.04667847282362
C           -0.54556016145358       -1.23010639499717       -0.22801191953068
C           -1.93462164404360       -1.18536292231368       -0.23281327825930
N           -2.57233196007037       -2.38051559576812       -0.43320229875729
H           -3.12723336490341        3.15724909750881        0.48093511607546
H           -4.30721319691582        1.90214760102017        0.43122948220442
H           -0.99899704134620        2.86532630459845        0.18766185718008
H            4.32567609053081        2.51793149615985       -0.26320901723598
H            3.01532299602864        3.64434678089015       -0.33607619090525
H            5.03380672370795        0.16168782843149       -0.10324665205441
H            4.57148030760895       -2.41393740251150        0.26070236628515
H            1.01419763827317       -3.09095980743374        0.98868463603964
H            2.50878173289509       -3.81460787850042        0.72527176840533
H           -0.14893323891010       -2.21588097907345       -0.43702149217295
H           -3.56662128787835       -2.38733136313284       -0.58435079239492
H           -2.04345352117579       -3.15536361743938       -0.79242102737803
