28
 energy: -46.673983073916 gnorm: 0.000846469410 xtb: 6.6.1 (8d0f1dd)
N           -5.49647397212777       -0.00546047515415       -0.05425825706861
C           -4.34893466528441        0.08765730929556       -0.04090324815162
C           -2.94897026048530        0.18793030051408       -0.03151456543235
C           -2.41936443497553        1.48040462852150       -0.15362152534912
N           -1.20610733963485        1.93946607239879       -0.10346877923980
C           -0.03461159854512        1.29071225066514       -0.00487112931522
C            1.05935151341631        2.15696032445394        0.09401959584957
C            2.37185580254872        1.71990213869201        0.11149428725790
C            2.62300955321779        0.36726959908692        0.02216998647551
C            3.83483720155785       -0.38114791790778       -0.00338324227161
N            5.09038183951577        0.13552781201076       -0.00022682384131
C            3.49305161856847       -1.73995740054953       -0.09423722240043
C            2.11514821421664       -1.85973133492382       -0.11773167036109
C            1.53093401420015       -0.57169274440252       -0.04656925292483
C            0.19263916995319       -0.15504495598869       -0.02728718293726
C           -0.82036337655438       -1.12719328543199        0.02627119450648
C           -2.20365165099999       -1.02315700907046        0.06788572835352
N           -2.91832341044424       -2.17087252816421        0.20694322271547
H           -3.16082436807854        2.26737940501975       -0.28766708349265
H            0.83386625612353        3.21095125793410        0.13417765507313
H            3.17606280845139        2.44093958193201        0.17449614322611
H            5.86497697266866       -0.48390656811613        0.16365073493178
H            5.21355303432143        1.10055579760144        0.25176625060919
H            4.19705928568088       -2.55111382378165       -0.13720976981435
H            1.59259235660479       -2.79627764854397       -0.19004719174916
H           -0.45722569128100       -2.14673716102156        0.07661533140496
H           -3.92196978953292       -2.14677838375890        0.15116740062031
H           -2.45494300460169       -3.06086990471078        0.17681898902548
