27
 energy: -46.961533447749 gnorm: 0.000652813009 xtb: 6.6.1 (8d0f1dd)
N            2.62883914237250       -2.81390620088961       -0.00054808503951
C            2.21034254280321       -1.74313163234691       -0.00400874221534
C            1.79538697539442       -0.38818255934999       -0.00493716479966
C            2.83612810453868        0.56639458843870       -0.00769660205388
N            4.10906309861043        0.09834534987578       -0.02739776459866
C            2.67663114296015        1.95947024195520        0.00075353510607
C            1.51083329029473        2.69715509814279        0.00760694959268
C            0.19178382060617        2.28093393098997        0.00595322512717
C           -0.36034591734684        0.99738777858054       -0.00005948440850
C            0.38706690888869       -0.25672265102135       -0.00144934765139
N           -0.21176160151261       -1.44699120635974        0.00054913620810
C           -1.53723821464337       -1.58294812024782        0.00014116856038
N           -1.99790376538115       -2.84309000213351        0.00362815511037
C           -2.37515049784195       -0.45653128630969       -0.00374002006049
C           -3.74895613637174       -0.21506314220173       -0.00647350492666
N           -4.01139564421321        1.10232032047837       -0.00740753993827
C           -2.84723972075785        1.74318474936097       -0.00517566800714
C           -1.75755660429924        0.84563796094711       -0.00288091735318
H            4.88320394672708        0.73583841804306        0.00953178170626
H            4.28911530125677       -0.89055344751421       -0.00257097842934
H            3.60123177810058        2.52404663865466        0.00100310329925
H            1.65142021548850        3.77146922488887        0.01418560305673
H           -0.54257170442952        3.07604204781675        0.01002638907796
H           -2.98258210347045       -3.03423221753850       -0.00138180676675
H           -1.32955959259329       -3.59421363920075        0.00315204552622
H           -4.55583515056432       -0.92595361092471       -0.00797653167306
H           -2.82736437081652        2.81780944996573       -0.00584691104938
