28
 energy: -50.709740186175 gnorm: 0.000516479109 xtb: 6.6.1 (8d0f1dd)
N           -3.57900477801724        3.26598088010391        0.01019566937210
C           -2.73170334002693        2.49244978924454        0.00527318131706
C           -1.67028648591101        1.56504103294158       -0.00295267087291
C           -0.35515831733738        1.99452885845158       -0.01224169475145
C            0.75685913014492        1.12757649261299       -0.01742239498557
C            2.00917057518479        1.78737201613158       -0.02393462753845
N            3.24392430015889        1.39369743028217       -0.00971887244800
C            3.68805311028810        0.12250339978714        0.01168474811964
N            5.03921105270832        0.06917294951043        0.03830793371990
C            2.97463838355448       -1.06870572449719        0.00127271562306
C            1.59371859864211       -1.29501779569467       -0.01982211939904
N            1.18447975687955       -2.56356032888927       -0.03607623114352
C            0.54817781520507       -0.29796490215386       -0.02023202189003
C           -0.77869865169889       -0.72727010044225       -0.02020266607826
N           -1.29015480625928       -1.98669659879533       -0.03125702328704
C           -2.61901797187678       -1.80026568648298       -0.01673155422089
N           -3.49385633640109       -2.82650700636515        0.03341100992676
N           -3.03830999838039       -0.51934565685144       -0.00416026179439
C           -1.90635298348734        0.18316014710058       -0.00540355529327
H           -0.16933692538717        3.05965516864991       -0.01257199558961
H            1.94079722410171        2.87398866276607       -0.04048999617199
H            5.53975237370939        0.93976582741108        0.05597458902350
H            5.53810329207387       -0.79992838203506        0.07597836198248
H            3.58277294805996       -1.96745682882131        0.01126146640537
H            1.85464456072674       -3.31273497707149       -0.02144765194833
H            0.16033609426615       -2.72877793438096       -0.03279928053389
H           -4.45635736539459       -2.60130058850532       -0.14581680285347
H           -3.16093673432593       -3.74260967170725       -0.20853460468970
