32
 energy: -59.168125958038 gnorm: 0.000618415976 xtb: 6.6.1 (8d0f1dd)
N           -5.40205783341008       -1.39858701191579       -0.90907392205837
C           -4.34291539382390       -1.01769398338392       -0.67520089114867
C           -3.08619350549660       -0.47476722905455       -0.39600256755349
C           -1.85884419945396       -1.13095845351781       -0.39918234283058
C           -0.84319895170333       -0.19201180242459       -0.11753801522335
C           -1.48822372567471        1.08637910145879        0.06452302671194
C           -0.72462101612019        2.21192623933333        0.38215466616741
N           -1.28122031324369        3.41206692785829        0.69279071836393
C            0.66826319748419        2.08703892705692        0.27973370056990
C            1.31934544334421        0.89597424955050        0.00016737583751
C            2.71116160363232        0.96810787581707       -0.32471423522139
C            3.26976981665036        2.25497021815351       -0.48513144909728
N            3.76152869477398        3.28544301520192       -0.61482946823519
C            3.59873624983571       -0.06297383150948       -0.61760715354070
N            3.52328186743940       -1.35053041992240       -0.39358874252009
C            2.48818353554730       -2.02404861319017        0.09195071770251
N            2.81870349237958       -3.26975582354286        0.48814277536341
C            1.11690546272430       -1.62780833406245        0.15866163196365
C            0.27291265440815       -2.67794026972619        0.56886076378933
N           -0.29499595078497       -3.59438837405535        0.97379329375056
C            0.55051073952684       -0.34486129072000       -0.02517870831440
C           -2.87421991047145        0.90544257331320       -0.11486632164276
N           -3.86133276630995        1.84392893350553       -0.03820506512538
H           -1.73245054025234       -2.16836697826811       -0.63928024568458
H           -0.66213433837324        4.13851634601290        1.01514117256290
H           -2.21338352394703        3.41931537469449        1.07140026637364
H            1.26255855441568        2.98171830630160        0.40077030629428
H            4.55619640325588        0.23438380480810       -1.03805031733661
H            2.12856586573615       -3.92474317738586        0.81248472481290
H            3.77653108254288       -3.55198992249748        0.37385616945306
H           -4.77607280588339        1.52882028423768       -0.32837555011329
H           -3.63148949624772        2.78579411618235       -0.31452791506682
