28
 energy: -46.677850300946 gnorm: 0.000664563622 xtb: 6.6.1 (8d0f1dd)
N           -2.78530591805103        3.54737202848352       -0.00950603074565
C           -2.40357553742957        2.46255692434700       -0.00852214253272
C           -2.02887782445358        1.09963407989268       -0.00881708099192
C           -3.14450374164564        0.25864681688456       -0.02205709804685
C           -3.23059050107407       -1.11043658820431       -0.01862868461398
C           -2.16860202503664       -2.03593884446347       -0.00642460182269
N           -2.51589165938850       -3.35380494471600       -0.03165039500173
C           -0.80913318776213       -1.74312235992493       -0.00700152699856
C           -0.08790185442697       -0.54102561300485       -0.01239560758464
C           -0.63235008028470        0.80378183658658        0.00125852636128
C            0.24146398708911        1.90100442991811        0.02251495827478
C            1.62031580119450        1.78694045790516        0.02408813478375
C            2.17199308468266        0.52562420704701       -0.00074358269489
C            3.49727551024059        0.00788184020699       -0.01759001360115
N            4.65492085964684        0.70512211623714        0.04095527112511
N            3.49102527578655       -1.33649905672247       -0.04823692486468
C            2.21372718205318       -1.72301720068454       -0.04969685558727
C            1.31819584392694       -0.63649298798749       -0.02171205778508
H           -4.09390085196628        0.78398098261098       -0.03159539677530
H           -4.22622898807723       -1.53521139422799       -0.02568764231479
H           -3.47506705493200       -3.61965765550879        0.09824719187530
H           -1.81233580416602       -4.05866019766803        0.09767714355791
H           -0.17643573562314       -2.62261637979745       -0.00322470411718
H           -0.19097317662564        2.89052691554655        0.03808817115975
H            2.23352836234596        2.67706450300575        0.04428377602514
H            5.50297652615632        0.19270717452847       -0.13070696706257
H            4.64444973031445        1.68845480574268       -0.16371698344566
H            1.99525263220611       -2.77546858003276       -0.07872765837571
