31
 energy: -55.443347622648 gnorm: 0.000645666512 xtb: 6.6.1 (8d0f1dd)
N           -4.77431200924743       -1.06594059038511       -0.38597097920340
C           -3.62981209805118       -1.11917312565446       -0.30056216405977
C           -2.23983255532591       -1.22569886597390       -0.20164812519239
C           -1.51384474735508       -2.43176417806733       -0.29204062562525
C           -0.15848247621140       -2.16762405543484       -0.13924697635130
C            0.85202914660375       -3.11750485555708       -0.26902366319912
N            1.69762823209079       -3.89494148839235       -0.36004497666851
C            0.00484079358751       -0.74594683283603        0.02936494704436
C           -1.31811621902815       -0.18182356728226       -0.03310551202798
C           -1.48877240729714        1.20357499760281        0.14890123755227
C           -2.77068368568023        1.76711037149188        0.31025254424505
N           -3.77949288957760        2.28916872355717        0.47726464509731
C           -0.37270515933852        2.03681020829760        0.17307751274171
N           -0.54776484267176        3.39781505878448        0.25876162892267
C            0.95082717448129        1.49312637379050        0.00328447035908
C            1.94023825781212        2.38035716461284       -0.42965955755003
C            3.25895766364820        2.16347984652405       -0.78379024566703
C            4.03336895047425        1.03831115958313       -0.53970878961329
C            3.66506146975784       -0.09925108345319        0.14702255446669
C            2.39345298025194       -0.50744896573788        0.55712504133274
N            2.33427829595928       -1.54239305231252        1.41239463874584
C            1.12638663743181        0.06716292274270        0.15975855318217
H           -1.94457820643337       -3.40118968245035       -0.46440564781625
H            0.15423682117921        3.94099710642701        0.73247830737907
H           -1.49705859439242        3.70215228340113        0.41486292425466
H            1.58399171925442        3.38164618218313       -0.63577016722065
H            3.75900700004196        2.99102082936111       -1.26880525387796
H            5.06714684568055        1.08980207995007       -0.85540118069974
H            4.45978482574200       -0.79467709374920        0.38798942971398
H            3.15438735568744       -2.09633716630679        1.59506766599670
H            1.44631270312577       -1.93534290361612        1.67735783063859
