28
 energy: -50.687901983621 gnorm: 0.000361528328 xtb: 6.6.1 (8d0f1dd)
N           -4.72781768778837       -1.81284680755286        0.29346457305500
C           -3.69815142569737       -1.30356353871217        0.21775999323990
C           -2.46194695949891       -0.66796406875389        0.13104618021997
C           -2.27107599505935        0.73842779718193        0.14727124457234
N           -3.27284236070885        1.66064483660513        0.20459369588648
C           -0.88759640455106        0.99545272318004        0.03384905490387
C           -0.10553145636631        2.13009806990147       -0.17123572037562
N           -0.61920393556265        3.38430488771542       -0.31688537240989
N            1.23003534477452        2.05109474605647       -0.17685745140300
C            1.87359692318411        0.89605504296807       -0.09390377393752
C            3.26020062218418        0.98886111458595        0.17773068599467
C            4.13428567239392       -0.05103965563152        0.41132876909676
N            4.03792602183889       -1.33601936739553        0.10790103566834
C            2.95808874174127       -1.92715614732017       -0.36410613536674
N            1.69323689020364       -1.60948701245647       -0.34030214933396
C            1.16320260118935       -0.38450109691016       -0.12658563414443
C           -0.21101694733467       -0.27941377126363       -0.00379874714118
C           -1.20260078738244       -1.30126271197123        0.03367947767486
N           -0.91183259262865       -2.60647831243759        0.00167190324090
H           -4.18987845957964        1.30220662462420        0.42548731862430
H           -3.05217743494055        2.55741972376271        0.60711866536052
H            0.05265785081194        4.07996663144570       -0.60188734340998
H           -1.54712454977306        3.47377305908676       -0.69588065014832
H            3.61129327860232        1.99593516102874        0.35767747792757
H            5.09609476314813        0.20255452366401        0.85002120431742
H            3.14898433936540       -2.92693140002373       -0.75422369841311
H           -1.63548560594759       -3.29677054452098       -0.10179307504873
H            0.06180860318142       -2.82349935275618       -0.18217747075111
