27
 energy: -47.757952466416 gnorm: 0.000943775212 xtb: 6.6.1 (8d0f1dd)
N           -3.09844814300729       -3.41268329103543        0.47402192454148
C           -2.66400731496617       -2.36043334336263        0.34245601516369
C           -2.16360112637938       -1.04146841942882        0.18900404212623
C           -3.12823628172969       -0.02540811067060        0.21078505814827
C           -2.93569266387955        1.31112147467376       -0.02265560860873
C           -1.74888675865237        2.04440728044909       -0.19606570562818
N           -1.93110394881372        3.32886706516704       -0.57258598332197
C           -0.39986708363952        1.61098371590588        0.04096672260102
C            0.56394847668401        2.60515360601752        0.26843035700193
C            1.92250234622071        2.35635563046214        0.35362330552078
C            2.37352235314197        1.06869064352226        0.14732124621809
N            3.64432213566971        0.61146223115241        0.13285199822235
C            3.56073160900197       -0.69175467579639       -0.05460454520818
C            2.22477107616477       -1.15698086499359       -0.15981663205356
C            1.87211147210734       -2.48856864196241       -0.36245318003527
N            1.61289366043160       -3.59734735675063       -0.53287455035982
C            1.41927919354760       -0.00540300610340       -0.04054579528050
C            0.02431834714553        0.22405720746939       -0.01354718426084
C           -0.79423337537876       -0.91192825631910        0.00971621685776
H           -4.15064246256496       -0.34999329311993        0.36075249124992
H           -3.83887753140563        1.90757446972658       -0.08838950167599
H           -1.15489632046205        3.90886470308080       -0.83499479637491
H           -2.85967562198304        3.66749174887338       -0.75648228254900
H            0.24027030624003        3.62097584540976        0.44167424056416
H            2.61921136414311        3.15333021095377        0.56019522934943
H            4.44446499971534       -1.30121977612502       -0.11675166457817
H           -0.25897444205177       -1.85343000679635       -0.04395567552955
