28
 energy: -50.688117528193 gnorm: 0.000779635082 xtb: 6.6.1 (8d0f1dd)
N           -0.28670093191415       -3.45316370893857       -1.07558413827255
C            0.24800297058667       -2.48089876358850       -0.76424965059516
C            0.94868898947699       -1.32910406261538       -0.37883224595512
C            2.33629565661686       -1.44388572199709       -0.58092098161708
N            3.31859467984610       -0.65851426476899       -0.24568956725086
C            3.12821410360462        0.55870734868537        0.30563100014178
N            4.19396297109703        1.02199016051868        0.99432732960255
N            2.12495500228155        1.38446149323340        0.16303913117327
C            0.84468873480508        1.15315193981869       -0.12318558018961
C            0.07465331112053        2.27265961860078       -0.41917347331446
C           -1.31932946098327        2.25181887234921       -0.41662378433153
N           -2.03500689752475        3.35679272526734       -0.72388001934592
C           -1.94340682650524        1.05317760351330       -0.03263464856840
C           -3.27281628934557        0.70763602994862        0.21707510433079
N           -3.39883488151508       -0.56288583672965        0.60588016316987
C           -2.17497378581350       -1.11482368391327        0.58171726760776
N           -2.01908078053904       -2.35053181997206        1.09165853381008
C           -1.17813528653787       -0.15412252786387        0.16347659737056
C            0.19680516212860       -0.16714858831255       -0.03709505648629
H            2.66655726353400       -2.37091160203817       -1.04484904531187
H            4.20217845203161        1.98351942405060        1.28457108107443
H            5.05167315382448        0.50142758266819        0.94832279873861
H            0.59670330473469        3.20340686868285       -0.58176095787898
H           -3.02789584984609        3.36240553015735       -0.57917944834536
H           -1.56256994353943        4.23289643721275       -0.86019782524323
H           -4.14918630503661        1.32655779951221        0.13600044032966
H           -1.25788081782240       -2.93685321011912        0.78575690722087
H           -2.88973727626569       -2.81410529786221        1.30325053173729
