30
 energy: -50.118980365735 gnorm: 0.000982480714 xtb: 6.6.1 (8d0f1dd)
N            0.74363950081947        3.82372903129394       -0.24280781781326
C            0.41622583866034        2.72144845069869       -0.16063924527677
C           -0.05087232028702        1.40175540603960       -0.08038615411254
C           -1.45502799351919        1.22988221120607       -0.06722336845027
N           -2.28089773536985        2.31476987434358       -0.10750230562670
C           -1.94572335534222       -0.06971586161750        0.02979390983889
C           -3.24870253856747       -0.60045637120553        0.11197073028524
N           -4.42895551770366        0.11299411260783        0.19425113653205
C           -3.14488980776645       -2.00656258855516        0.06355241243348
C           -1.81663131937921       -2.36344699231719       -0.02049193132032
C           -1.03263381947831       -1.18551563653033       -0.02795843523582
C            0.35222862872925       -1.04092639035067       -0.08468929065453
N            1.04391077132914       -2.18005766363731       -0.21038131853276
C            2.33172952700955       -2.38179903200798       -0.20541130599587
C            3.41535897754700       -1.53361537774625       -0.01375897947961
C            3.37533845638281       -0.14113777151455        0.11631523245829
N            4.55744869215602        0.50571759281565        0.31077958563812
C            2.22621650355107        0.66033346625780        0.06618900523117
C            0.87754998013970        0.32718145274032       -0.03627956979567
H           -3.21324605378700        2.16580809484174       -0.45587991345256
H           -1.85809539174630        3.20353185688620       -0.32993360745310
H           -5.23445579768022       -0.46004676489591        0.40235514813035
H           -4.39049877244422        0.94896206163570        0.75964659475309
H           -3.98386045424316       -2.67895136309288        0.10066772034811
H           -1.41874578703687       -3.35859490307889       -0.06190674632188
H            2.58231569488329       -3.43011330962322       -0.36232908201697
H            4.39477077803100       -1.99422486444661        0.01183364657547
H            5.42114097313806        0.00106169435901        0.22584348311629
H            4.59061415931309        1.50875275972870        0.26652975557161
H            2.42748581366089        1.72427935356436        0.14301383312611
