30
 energy: -50.925618802058 gnorm: 0.000588562911 xtb: 6.6.1 (8d0f1dd)
N           -5.34810639827552       -0.44137212079773        0.00167724765286
C           -4.20358264689556       -0.33303478731206       -0.00108136935839
C           -2.79812354333088       -0.22692425075672       -0.00283051911985
C           -2.28776906063595        1.06881295372211       -0.00285622278239
C           -0.98030784055306        1.52085482236418       -0.00401038036260
C           -0.91391891773794        2.93665205213213       -0.00408114028815
N           -0.92104004520198        4.08531692745914       -0.00419509236678
C            0.26700644429902        0.81754135082771       -0.00443898390653
C            1.41527120273729        1.58791415018222       -0.00663525693680
C            2.72018222954311        1.06413363798534       -0.00567434917071
N            3.77794833554036        1.89915978715184       -0.00771526934570
C            2.86302128542549       -0.32475549882658       -0.00178394742559
C            3.99499871935254       -1.15466939099231        0.00089308186276
C            3.55497217459251       -2.47541162524680        0.00434545702979
C            2.16730598439575       -2.49502040710718        0.00371256733124
C            1.69415254172978       -1.16384939215527       -0.00006358818754
C            0.38249178213927       -0.64363385008183       -0.00216862337526
C           -0.67022679773366       -1.55502005227250       -0.00254865946316
C           -2.06115971173179       -1.43705741219431       -0.00374788746234
N           -2.77378007089365       -2.59287724715917       -0.00829723230912
H           -3.04213207519270        1.84974972154985       -0.00195539964522
H            1.31718295907339        2.66452380754827       -0.00894644140703
H            4.71090816480692        1.53036581933099       -0.00812046124530
H            3.64167989867861        2.89418133785459       -0.01161764936244
H            5.02241265172274       -0.83673653510843        0.00048831574256
H            4.18906698422051       -3.34362358656800        0.00711955787103
H            1.57641783016110       -3.39287249302057        0.00605935297162
H           -0.34298787518479       -2.58756871770138       -0.00221436857609
H           -3.77864880175486       -2.57079326449537       -0.00017663492749
H           -2.30507816969612       -3.48004232291214        0.00140957366266
