33
 energy: -57.288204328860 gnorm: 0.000605477954 xtb: 6.6.1 (8d0f1dd)
N           -3.40702258496194       -3.35434936178920        0.20153950805256
C           -2.82518310273127       -2.36052750623519        0.14883880100485
C           -2.13914572683007       -1.14168204827620        0.07577547559290
C           -2.85611233159603       -0.03798253490371       -0.45300258169938
N           -3.94799886462327       -0.26503564888927       -1.21669878915443
N           -2.61714815280001        1.21490476403037       -0.13679645487465
C           -1.51980460786039        1.76684134679012        0.33515856578910
N           -1.71438393172494        2.90237195227467        1.02707541996816
C           -0.16927564840775        1.31896086598376        0.10141432502708
C            0.84695145505703        2.27686101490915       -0.10089999317779
N            0.52333860226034        3.65604737112604       -0.19550306880578
C            2.18028242594054        1.91136554826915       -0.20557159622949
C            2.53569833541854        0.58102163595568       -0.13040891245533
N            3.75666214900872        0.04751259995287       -0.27190262698569
C            3.57101650341117       -1.28170784779463       -0.21461175422946
N            4.64091346500618       -2.13697415613495       -0.28160328664434
C            2.23104984313143       -1.64820049884510       -0.00438045361211
C            1.51581804837397       -0.44708420013337        0.06475209592689
C            0.16114434369552       -0.07909446838013        0.19561077899119
C           -0.79405483057862       -1.10238825168583        0.50664714822759
N           -0.34641618534857       -2.17793051349489        1.18092710475863
H           -4.54755510887718        0.51165237435717       -1.43301307556235
H           -4.30364434880237       -1.20098240545506       -1.30907328914843
H           -0.91916340676151        3.48555349685233        1.23936561314776
H           -2.65037868921862        3.26142231057576        1.10567712133630
H           -0.22335473922280        3.84095527859934       -0.85499616200887
H            1.34420131542026        4.19164468860033       -0.45065863668862
H            2.93981324022560        2.66221719226450       -0.36812688982010
H            5.48113071994767       -1.70997717118055       -0.63858453821002
H            4.45169434938484       -3.06401206071929       -0.62774219747274
H            1.88140198717493       -2.66455894672105       -0.00346375447981
H            0.61334692440392       -2.20283226515231        1.48058711905090
H           -0.94120515951521       -2.97705970074999        1.31971148828575
