30
 energy: -54.930099848138 gnorm: 0.000870047716 xtb: 6.6.1 (8d0f1dd)
N            5.56002218058399       -2.19378286443596        0.45602069138480
C            4.58784711541580       -1.58893080152450        0.34486707189929
C            3.44190107167703       -0.80336276511111        0.20743476207250
C            2.11679772812332       -1.23475905985934        0.17610193043866
C            1.28941959069311       -0.10609261675110        0.02805920312552
C            2.13776907754900        1.05913956768103       -0.03901644535517
C            1.54110949061440        2.29250621437562       -0.25344871979817
N            0.23982903160175        2.44873586987961       -0.30344467710538
C           -0.59503434163827        1.39282027267942       -0.17675544844727
C           -1.92991522607263        1.75955352323159       -0.06405823551767
C           -3.09089615438609        0.99282823058364        0.11574138474527
N           -4.23702859982179        1.67936063368886        0.34009044495154
C           -3.17832890094936       -0.41223525104339        0.05338050632045
C           -4.44831224041126       -0.98571446600928        0.20017868351139
N           -5.49342691560448       -1.45812277173907        0.31761220774133
C           -2.09682498087364       -1.31818532947485       -0.19733667440409
N           -2.42724624320375       -2.60486576838800       -0.45224789406063
N           -0.80515130100032       -1.10723142593416       -0.17066125200477
C           -0.09834707502519        0.01668059853237       -0.09732710479800
C            3.47533320988302        0.61902096904371        0.07357225524086
N            4.59490802366606        1.36723873484703        0.04131233746899
H            1.78327191967476       -2.25160898064486        0.25338541752809
H            2.12005834192752        3.20098756763700       -0.38119448159842
H           -2.07711861245632        2.83312259663305       -0.06333605677709
H           -5.11288182270469        1.19380962644310        0.42844666947271
H           -4.23027247316986        2.68291407072571        0.33849841180671
H           -1.67838716412640       -3.26514619806144       -0.56301092142053
H           -3.38025811123829       -2.92076128563521       -0.41210634640412
H            5.49040381642276        0.92670237867798        0.16057268825818
H            4.53945579965108        2.36843429745196       -0.00718218797579
