30
 energy: -49.320848716704 gnorm: 0.000506682926 xtb: 6.6.1 (8d0f1dd)
N            3.92400424505502       -1.74811339982623       -0.33010277658801
C            3.11183042232774       -0.66299651636896       -0.13859468989504
C            1.73219288835672       -0.90563219156558       -0.12996992313483
C            0.64479283181004       -0.03961339058505        0.01992989115443
C            0.74208026273579        1.41053713521448        0.05404818705850
C            1.97146794252691        2.10694043651218        0.19827925312263
C            3.26438948627950        1.64889356880605        0.25975489046736
N            3.80135128749172        0.45077927770171        0.08865269547278
C           -0.41478370855377        2.17918078421414       -0.00466067877044
C           -1.70935637237342        1.65036603097188       -0.07390153375993
N           -2.79721959257283        2.47852443620252       -0.16665853565808
C           -1.83156280645896        0.26643790989956       -0.05605970121093
C           -2.92386683035116       -0.63099702540169       -0.06426963032935
N           -4.26181302019654       -0.32135311592381       -0.17186137870020
N           -2.52207099629476       -1.89544319805765        0.11270559061824
C           -1.17844662085942       -1.87484080484670        0.20188941849507
N           -0.50259786744523       -3.05361456081869        0.39539460667882
C           -0.65766767889542       -0.56459395054579        0.06378643879529
H            3.55083623137423       -2.57986244963348       -0.75237187556415
H            4.89875256078827       -1.54418154302515       -0.47135299067355
H            1.46826206166679       -1.93689437092738       -0.32242329536537
H            1.86478276190846        3.18094928843323        0.30122952378404
H            4.02739400805284        2.40366437460865        0.43979748264305
H           -0.31299786186586        3.25652571581827        0.01388904495895
H           -3.67301260348814        2.10465759778088        0.16107880705494
H           -2.63769918157878        3.45000130520859        0.04952244003900
H           -4.83110673659400       -1.15114169967358       -0.26727083322897
H           -4.48157156201935        0.38845651833492       -0.85604630836149
H            0.31727363417496       -2.99374186019288        0.98199050206517
H           -1.12656326990129       -3.81095532551418        0.63679082753199
