31
 energy: -54.658065206871 gnorm: 0.000678156410 xtb: 6.6.1 (8d0f1dd)
N            4.34278363278011       -2.41655315809769        0.53258436855566
C            3.58638726305450       -1.57571880417196        0.31954660545818
C            2.68664680427187       -0.51537881268012        0.07732412282566
C            3.29531472223364        0.74055013084454       -0.07884570038968
N            4.64343109010591        0.81417887548665        0.00084017819555
C            2.61415162863292        1.94313795981434       -0.35458974528348
C            1.27619109467174        2.19947407785241       -0.30141927874712
C            0.15472072011339        1.38449213746318       -0.03651658404016
C           -1.07936410777561        2.09380913452634        0.14579089402664
N           -1.06383840445983        3.48051080285195        0.27508742113593
C           -2.29999309621104        1.44805197717742        0.13969282921737
C           -2.33080013440568        0.07074275666775       -0.00226300032261
C           -3.36496940532948       -0.89105612859088       -0.03536829879075
C           -4.73567331027756       -0.65526292202416        0.01688914428363
N           -5.86635419399232       -0.44781262372681        0.06322350177257
C           -2.71203468712767       -2.13001574073251       -0.12332988098858
N           -1.38815269887744       -2.00937976165462       -0.14540104053583
C           -1.10481105461110       -0.67785463644868       -0.07572356233648
C            0.15184802617062       -0.05232643299904       -0.06353154945985
C            1.32132725964063       -0.90340913109339       -0.05562659588266
N            1.08781322997501       -2.20859320826594       -0.12060513198617
H            5.19517217446844       -0.00688088910294        0.18173973569294
H            5.10952188810120        1.69473313664430       -0.12196882094444
H            3.25729213923232        2.78231704324434       -0.59034633659851
H            1.01781384435169        3.22819498454045       -0.51880711753368
H           -0.35059695814974        3.86763618624436        0.87253076955822
H           -1.97530391635351        3.86845442686354        0.46898929285691
H           -3.21766576946225        2.00840284754604        0.25312718207628
H           -3.17257593874471       -3.10066473289747       -0.17244432606523
H            0.07695867119376       -2.50682106849507       -0.15348394809772
H            1.85163442137925       -2.86354757268472       -0.06769507865345
