27
 energy: -47.770492060994 gnorm: 0.000449028319 xtb: 6.6.1 (8d0f1dd)
N            4.60668712446793       -2.35486065801193        0.00506840129884
C            3.63530493558117       -1.74627130613810        0.00513554157093
C            2.43070807019429       -0.99739864110014        0.00283890407767
C            2.57651865408595        0.39205603593766        0.00034467300802
C            1.58429137173658        1.34976233059217       -0.00175544228830
C            2.07537783106030        2.68073763635779       -0.00431400342038
N            2.48138352930844        3.75420229358440       -0.00567043605339
C            0.15650822109023        1.22209253129881       -0.00202358940712
N           -0.53516260450305        2.35080707451167       -0.00459209883356
C           -0.61412597534338       -0.00216294439921        0.00021650187613
C           -0.09066607344896       -1.34972329968760        0.00304930250958
C           -0.99958023454266       -2.44648263363514        0.00508357035700
C           -2.35857845463673       -2.31620182770441        0.00447100685856
C           -2.90170641402387       -1.03109391785080        0.00169423441425
C           -4.19188796783911       -0.50725322003806        0.00026089442023
C           -4.03422714226170        0.87915115698250       -0.00254217430049
N           -2.75378303735295        1.25218993235819       -0.00296653266726
C           -2.01043746939340        0.11283176275036       -0.00040593222877
C            1.25514757396379       -1.73462578584246        0.00405737179519
H            3.59555317351723        0.76362268492195        0.00003982613702
H           -1.59042960317264        2.25453531175877       -0.00469179877488
H           -0.05691462676098        3.23870346967489       -0.00618457978861
H           -0.57269796714140       -3.43882213732482        0.00722726921014
H           -2.99959508486942       -3.18535666486205        0.00607553388504
H           -5.11713181170614       -1.04832867994474        0.00110805301838
H           -4.80816469449921        1.62610186660078       -0.00429967593677
H            1.41480137898968       -2.80782755559051        0.00623568676256
