31
 energy: -59.446949847706 gnorm: 0.000817607389 xtb: 6.6.1 (8d0f1dd)
N           -5.44847700839992       -1.04605294894330        0.25414964299919
C           -4.37445848148998       -0.63723343477004        0.20566780058519
C           -3.06655888219166       -0.12639935423743        0.11866974174918
C           -2.94313146763866        1.22248192499211       -0.30692627150988
N           -3.95211054270821        1.81276266006752       -0.96701454219069
N           -1.94387823909843        2.02020456321432        0.04658945380476
C           -0.72800703197578        1.72869298717006        0.36276177886024
C           -0.00585802035856        0.52308336664029        0.13186786750736
C           -0.61860387429523       -0.77740467232370        0.08033538067357
C            0.23900931047904       -1.88897279930195       -0.17156778178615
N           -0.25804275801624       -3.18412917341921       -0.33438128370243
N            1.55359614833454       -1.81408919418044       -0.24858980116773
C            2.13992169489795       -0.64246424293283       -0.11024323652999
C            3.51798278903869       -0.31933724825303       -0.12060182126750
C            4.57523045798937       -1.22541065738753       -0.23020266858228
N            5.44870163007376       -1.96722135651324       -0.31429981309783
C            3.61938559673713        1.06976098100824       -0.01692131400150
C            2.33556040552652        1.64133118347201        0.07490528236852
C            2.08761814075620        3.01094497898538        0.16063223035359
N            1.89333470895246        4.14376596717950        0.22770089289152
C            1.38912406870936        0.59243070234908        0.04005436302070
C           -2.00108813866218       -1.00464773399539        0.41681496261495
N           -2.32505259231268       -2.17485990049435        0.98637674337168
H           -4.81727138747554        1.32768301320442       -1.13431172418929
H           -3.89283753026349        2.80177841849575       -1.14200480848764
H           -0.16140225107961        2.56705470564317        0.75413436687363
H           -1.04442400982377       -3.27195804520422       -0.96433926070110
H            0.50080096804505       -3.80503294535249       -0.58861436453519
H            4.53934777972561        1.62636658276129       -0.00623154116055
H           -1.61172707920524       -2.87465962766536        1.13029453424986
H           -3.28677360777123       -2.38510741490719        1.19801859738572
