29
 energy: -52.003719746221 gnorm: 0.000795960782 xtb: 6.6.1 (8d0f1dd)
N           -5.93304677469697        0.62402661148000       -0.01891527294028
C           -4.84738948520393        0.25617392327713       -0.00900673260600
C           -3.50383347583651       -0.20034470772048       -0.00074758055265
C           -3.33208344868273       -1.58519400925952        0.00794315121194
C           -2.13228110458362       -2.27542353753174        0.01750188160259
C           -0.84081829907283       -1.77794397356192        0.01494167808003
C           -0.32660736621202       -0.47324313610785        0.00438271180927
C           -1.13974332810342        0.75424923536131        0.00343827671938
C           -2.53311906357471        0.80390196119884        0.00029412734685
C           -0.49123874945882        2.00142692795892        0.00375821722266
C            0.88745428607458        2.13904836666323        0.00199152677145
C            1.47675382870645        3.42210369216474       -0.00054296070479
N            1.96174277312424        4.46119869828459       -0.00171853601003
C            1.69644479274813        0.99499127474648       -0.00155234045036
C            3.07788643940126        0.84211795505208       -0.00782939969477
C            3.35926409707103       -0.53097777800409       -0.01392684153106
N            4.58193144448753       -1.10320124000305        0.01636907942280
C            2.12946779056936       -1.25214307916050       -0.01088130093820
C            2.10196223070025       -2.64229114670041       -0.03051971417191
N            2.16605639863158       -3.79350293209431       -0.05545054313173
C            1.06665915169913       -0.31480674577761       -0.00212468227471
H           -4.24016328026720       -2.17541558729765        0.00838224107154
H           -2.21154738439492       -3.35472636925996        0.02674720688286
H           -0.07633746326593       -2.54455624954173        0.02185487829105
H           -2.94564006348895        1.80821696925813       -0.00297902805133
H           -1.09575162909691        2.89723255341801        0.00452071080898
H            3.80271611740888        1.63409639035761       -0.00798499506261
H            5.39889219195141       -0.53478269825895       -0.11633206396699
H            4.66362616536610       -2.09808937564183       -0.10372291405504
