28
 energy: -46.669907821674 gnorm: 0.000566171455 xtb: 6.6.1 (8d0f1dd)
N           -3.59610747909815        2.65375531195949        0.26837013535320
C           -2.90770527967303        1.73859213052337        0.19000423378165
C           -2.14395305873171        0.54825790115280        0.11089050189412
C           -2.88348871578615       -0.62558752006700        0.25765006643639
C           -2.48523108122548       -1.93260607557911        0.12735953082369
C           -1.19439561576000       -2.41855112785209       -0.16005720167738
N           -1.08222853094744       -3.77444677635991       -0.32429389306058
C           -0.01431437010753       -1.68473410469775       -0.20109957666538
C            0.24739680889763       -0.31422823490077       -0.05296763874166
C           -0.75130703002106        0.75008759271347       -0.07590983978968
N           -0.43104767605681        2.03132875219338       -0.24612094435088
C            0.83289640473214        2.41863449828267       -0.33620857874836
C            1.87904655250917        1.54056967777990       -0.17790225601337
C            3.28499523597579        1.68995128397358       -0.14458930081254
C            3.84052927468140        0.45358942574352        0.09691888796076
C            2.81673376983836       -0.51428407954611        0.21104135883231
N            3.03685162485743       -1.84450246722895        0.48415216036433
C            1.57598722455428        0.13590969318755        0.01199682182735
H           -3.93739277109199       -0.47038934327915        0.46006094961996
H           -3.25578736811078       -2.68704408489125        0.22585835558575
H           -1.91844469469890       -4.30850482985160       -0.48558595268460
H           -0.23372762186936       -4.14268666871741       -0.71913060566262
H            0.86510541429419       -2.27901109783476       -0.41845004035430
H            0.98229951417671        3.47737504595779       -0.50688632959107
H            3.81451379296200        2.61590646740444       -0.26937356866684
H            4.88922266653576        0.23804724080140        0.20256344898510
H            3.97323495074394       -2.05140531755701        0.80102097858115
H            2.31740112001931       -2.30894511801036        1.01951059867363
