27
 energy: -46.969779458513 gnorm: 0.000492664341 xtb: 6.6.1 (8d0f1dd)
N           -1.88753692823660       -3.35566725336563        0.35647751975732
C           -2.03730787005444       -2.21391751127754        0.28364799953781
C           -2.21342177060958       -0.84022939253020        0.18745360648152
C           -3.42337324330692       -0.16549512913335        0.41307126167930
N           -3.30785530717451        1.15864473879076        0.34722290446949
C           -2.01263807760944        1.41242862162455        0.11582053522456
C           -1.38782569449105        2.65348780201768       -0.00625133814073
C           -0.02797583001698        2.68839034206550       -0.15408852405752
C            0.76510425190731        1.51559054797739       -0.20765546230519
C            2.16464693175600        1.70970419748785       -0.21386352455808
N            3.13213122451559        0.92059225049803        0.13525437876465
C            3.09369470061108       -0.40232869518898        0.31108124972982
N            4.17471452694918       -0.90348187112710        0.94252679983126
C            2.15475604860686       -1.27691455180323       -0.24988315901595
C            0.85358301828866       -0.97245945978329       -0.62225303554182
N            0.18231476591410       -1.87176620331399       -1.35980843758633
C            0.13331567668844        0.23077130208240       -0.24375221270715
C           -1.24311361907015        0.18945405949223       -0.01830532965531
H           -4.37325691346617       -0.62437291681783        0.62385170077020
H           -1.97565214423258        3.55617486809801        0.04493594553253
H            0.48307173087951        3.63921778694608       -0.19528317728844
H            2.50324433782498        2.72353031653957       -0.41485363224074
H            4.28439116406988       -1.88933605557654        1.09064666453865
H            4.87635998992811       -0.26440995354553        1.27129524079742
H            2.46868890885882       -2.30403865911287       -0.38983401076092
H           -0.80097972654151       -1.74429155480565       -1.53367748311015
H            0.55007668991126       -2.79965334223812       -1.48574071894610
