28
 energy: -50.682372989886 gnorm: 0.000680671474 xtb: 6.6.1 (8d0f1dd)
N           -2.13002173524793        3.41161633579873        0.00600271352448
C           -1.84985799237656        2.29627452380027        0.00483937153185
C           -1.60316689714138        0.90470422166041       -0.00049244621679
C           -2.75289388084442        0.06825739055370        0.07118574742221
N           -3.95064705888053        0.69272717011176        0.19869554317450
C           -2.75332274959456       -1.31740396564958        0.01554252496038
C           -1.65576171577085       -2.18683495131804       -0.09765885574775
N           -1.92459762596050       -3.50801688051959       -0.25684653571016
N           -0.35653350847451       -1.94352689458299       -0.05612943831118
C            0.30086072373843       -0.80011068251620       -0.01210029273151
C           -0.23821379897246        0.57333935035542       -0.05547539626692
N            0.55154375053354        1.64824337233170       -0.11054052104755
C            1.87828962133803        1.56098727345104       -0.07822431648338
N            2.54717102490472        2.72193749462456       -0.16235341744833
C            2.51821957210765        0.31367684345038        0.04339918740476
C            3.83084760528371       -0.15214748069479        0.11777346926738
N            3.87200272993713       -1.49549234307926        0.18931841462821
C            2.61922903254906       -1.93339913248591        0.15776905294692
C            1.69833843398252       -0.86566210297417        0.06985885841499
H           -4.80157303341452        0.16114511917123        0.18287729737808
H           -4.00034814170792        1.69652709464728        0.17617733732754
H           -3.72640455112886       -1.79292423600238        0.04922087026378
H           -2.85591291399967       -3.87180954322065       -0.17581015934445
H           -1.14230897078943       -4.13815877758889       -0.25099132041769
H            3.54916865744484        2.74294102270211       -0.12219625479376
H            2.01710844573649        3.57262877795554       -0.24016113326305
H            4.74450780634903        0.41563592673454        0.12329280616258
H            2.39575517919881       -2.98241731791605        0.19995848307479
