31
 energy: -58.665991530506 gnorm: 0.000715956635 xtb: 6.6.1 (8d0f1dd)
N           -3.15187098589620        3.35336043612090        0.31701325438688
C           -2.67472028704476        2.31014417350504        0.22807993040037
C           -2.12861735883034        1.02168294825227        0.10201503182313
C           -2.96108688789169        0.04519647866856       -0.52450851642557
N           -3.95311758433263        0.46260433728310       -1.32968405781121
N           -2.93538590822326       -1.24127580566851       -0.25351322490232
C           -1.96389254410731       -1.96181735199101        0.26183630771067
N           -2.34467674368375       -3.11270674164940        0.83703420619526
C           -0.55951907780733       -1.68212685425267        0.12924948202879
C            0.31530886665971       -2.75937829026895       -0.08699628313825
N            1.61777321023102       -2.67387047616399       -0.23027997638096
C            2.14928079800175       -1.46649406143866       -0.18156006159181
N            3.44818832189436       -1.19433960985714       -0.33532801458903
C            3.55894046632525        0.13450063573717       -0.28689258482930
N            4.75792403983309        0.74887259671649       -0.38148295440646
C            2.31080654716407        0.79256811576011       -0.06096760030193
C            2.16976173796059        2.16943813128635       -0.05308901872510
N            2.08877821910321        3.32180111608027       -0.04626405359168
C            1.35661979192184       -0.24587032670897        0.02661143707121
C           -0.02338038017303       -0.35781019689146        0.21583239839819
C           -0.82165356723388        0.80154009498486        0.56233565520944
N           -0.24901080610569        1.75008039126575        1.31486231215612
H           -4.12728004726784        1.44466990770143       -1.45747393735357
H           -4.61206069174724       -0.21224341672651       -1.67614477115574
H           -3.31941771659361       -3.36002186699793        0.82545147961757
H           -1.66259515378397       -3.77273921403071        1.16512841704003
H           -0.08537809612496       -3.75871894583748       -0.20812286946401
H            5.53152038907191        0.18628311791341       -0.69017044767904
H            4.78203646068901        1.73855399169369       -0.55772091896916
H            0.73232401631310        1.69332044330118        1.53413263405390
H           -0.69289285172171        2.65005551621240        1.41397907132319
