33
 energy: -58.084448098507 gnorm: 0.000773455133 xtb: 6.6.1 (8d0f1dd)
N           -3.36242390390829       -2.91456716190846        0.00703821703180
C           -2.74189882547872       -1.94573264826297       -0.02272132865853
C           -2.07227633371743       -0.70378248599303       -0.06687374007829
C           -2.87793965677349        0.41766214210910       -0.36784080908252
N           -4.15478957865179        0.16810407228829       -0.76724670336919
C           -2.50244192849385        1.75365766166714       -0.26136004501112
C           -1.28728220027970        2.30513105781438        0.13144054092139
N           -1.27266543750380        3.66322222464111        0.30230680637388
C           -0.04863626832332        1.63370511700454        0.27369031768969
C            0.98324049672335        2.42334522834805        0.79575678506834
N            1.79304073599642        3.09688826663143        1.26877389752653
C            0.29081446815826        0.27389614826049        0.02018939750410
C           -0.67684067413040       -0.81522760739241        0.13179470796550
N           -0.30179799067861       -2.06038806243535        0.39848056539937
C            0.98176936300139       -2.41908941412304        0.42331815084221
N            1.23145138197533       -3.68940125209049        0.81472864704509
C            1.97540048591438       -1.51927501071274        0.03507254429257
C            3.35127776792937       -1.65681679806345       -0.20584362235656
C            3.84546349730008       -0.43353781807143       -0.62253304258866
C            2.81342354696315        0.51659061655260       -0.62423084393121
N            2.95828247634097        1.75453565419785       -1.16696681225716
C            1.60931312723974       -0.14039041478658       -0.18809929260763
H           -4.81344730221393        0.92288891335060       -0.83371068524350
H           -4.50839377189099       -0.77241950361378       -0.72349496704852
H           -3.29401113258673        2.47175738805499       -0.44444892647018
H           -2.14984696076194        4.14456357834965        0.39412588245891
H           -0.47139568577655        4.09060624928732        0.73605261480491
H            0.43623646145682       -4.29715487029471        0.91448415078461
H            2.13683436640587       -4.09096469150770        0.65296835750667
H            3.92507085558799       -2.55995548237692       -0.09906677273992
H            4.85969882854697       -0.22724989021738       -0.91259031010625
H            3.90811991697882        2.05044934829675       -1.32599909399417
H            2.31789258625017        2.48916006149525       -0.91980555227216
