32
 energy: -58.384055027461 gnorm: 0.000637919579 xtb: 6.6.1 (8d0f1dd)
N            5.55601584775272        0.90849562876576        0.09378537772025
C            4.44329173284845        0.61126010563288        0.06535585159022
C            3.07885982010677        0.28959956914754        0.02742520622597
C            2.74717255825977       -1.06205816638311        0.04725748826684
C            1.50677985579245       -1.67407418315301        0.01505162361471
C            1.57323819336815       -3.08281324425939        0.02813368088624
N            1.66628468447205       -4.22937201480670        0.03319514627039
C            0.19779981510950       -1.07447500804228       -0.01553033208403
C           -0.89640982072763       -1.93165608119725       -0.04185544311163
C           -2.24125007833151       -1.52979082344882       -0.05501580508164
N           -3.23851930935673       -2.46686131492113       -0.07817110908379
C           -2.47939937692381       -0.16175027000656        0.00505086719011
C           -3.62498905772334        0.68570435801894        0.05941284405228
N           -4.92469548519710        0.30539080839935        0.10298071547157
N           -3.29569367930820        1.98869255739148        0.03600901279134
C           -1.95673508602854        2.04367022038794       -0.00771957252042
N           -1.23239904561596        3.15683700068766       -0.03036899617580
C           -1.36708823593008        0.73365197466959       -0.01096613739203
C           -0.03089144470990        0.35833746952877       -0.02661186736220
N            0.84954789012460        1.38559824291154       -0.06129683930019
C            2.15840594322793        1.38838793110359       -0.04739848927856
N            2.71231751266463        2.62486708790830       -0.10286143606338
H            3.59545801628594       -1.73857500519499        0.08875453524052
H           -0.70293906158658       -2.99575687824585       -0.06213090867931
H           -2.95325459357958       -3.41153576283107       -0.28421216684314
H           -4.12212053008422       -2.19196922801130       -0.47389992845838
H           -5.57767674634913        1.05440490093799        0.27321044116203
H           -5.14194866831802       -0.58011389230276        0.52974074399688
H           -0.22938969759655        2.98294228368696       -0.05369050216013
H           -1.66591375818955        4.06236017718084       -0.04008061220198
H            3.71108828018566        2.73690031223133       -0.11320463947951
H            2.11985296625828        3.43108097421400       -0.17998312370351
