28
 energy: -50.689133526565 gnorm: 0.000608876348 xtb: 6.6.1 (8d0f1dd)
N           -1.33193324150431        4.01178721567728       -0.35471156866748
C           -0.95524964979760        2.93097158971033       -0.23278707235741
C           -0.40763371816976        1.64216344822207       -0.11312262049830
C            1.01818977704678        1.56615152274425       -0.07689407836889
N            1.76399333670296        2.70305441027961       -0.14639760586830
C            1.56604200962105        0.30465405478253        0.07938499652858
C            2.88040920435459       -0.23651766303791        0.17492405662449
N            4.05136712340079        0.44996895758329        0.22904546853734
N            2.87923109135910       -1.57876557087225        0.16262847857119
C            1.59610403164767       -1.96812156191462        0.08420866316612
N            1.18107900525268       -3.23197147537501        0.05836417376537
C            0.70651187664176       -0.84730626244634        0.05408311512662
C           -0.67062975557997       -0.80365632920144       -0.04179922409023
N           -1.30438258714210       -1.99067338739365       -0.21291228942916
C           -2.58874388055590       -2.21271221264306       -0.24136874100269
N           -3.64050832430429       -1.50744227879087        0.12980655548016
C           -3.63452185701846       -0.19874515504659        0.34015266387861
C           -2.65069099724366        0.74488358003451        0.13551598868550
C           -1.26200380413578        0.52520070482797       -0.04672741697992
H            2.71958527078026        2.62160315212783       -0.44881473590295
H            1.28447944778349        3.55432828668119       -0.39737463190821
H            4.04523194882376        1.34931784352899        0.68267779250954
H            4.85722003972850       -0.12695537996520        0.41707580718559
H            1.84128222767651       -3.98469035315860       -0.02369057845564
H            0.18421848942952       -3.34794332223365       -0.09613150067381
H           -2.84426864326962       -3.22404732540025       -0.56003663979347
H           -4.59979683113832        0.17223771127835        0.67557805568221
H           -2.94852242988866        1.78039466470297        0.24832047445491
