27
 energy: -46.956945896134 gnorm: 0.000563610039 xtb: 6.6.1 (8d0f1dd)
N            5.60647052529453        0.73865237960731       -0.00343649174589
C            4.49286413376193        0.44944152466689       -0.00056826594036
C            3.13331077752895        0.10150367481357        0.00128471694523
C            2.81817807381996       -1.28391980479355        0.00840495817803
N            1.68684324943713       -1.90235300621428        0.00973649123495
C            0.43617389124400       -1.35068101473716        0.00197355546842
C           -0.58091147286005       -2.29940936819609        0.00044866039091
C           -1.94024350962122       -1.98517853876837       -0.00987196112421
C           -2.29695596148425       -0.66150796900768       -0.01814457058447
C           -3.56083990972500        0.03317521667263       -0.03236220463613
N           -4.76480201964921       -0.57164519329803       -0.00987702033039
C           -3.31623248852455        1.40333986354854       -0.03412082139796
C           -1.93005387727685        1.62039422656383       -0.02295616605277
N           -1.23892486280139        2.75541374361467       -0.02310001068849
C           -1.27362825040442        0.33893810367250       -0.01487629574210
C            0.08225769226658        0.06008810532914       -0.00535089160936
N            0.90348139483195        1.15643238603230       -0.00447107778331
C            2.20542794009342        1.15515210833524       -0.00196734647672
H            3.67692013981322       -1.95371615621481        0.01413154370953
H           -0.26978495315483       -3.33258532835167        0.00724026765696
H           -2.67159358314698       -2.78118749702744       -0.00920297225564
H           -4.82292005545326       -1.56745244471819       -0.12493884385234
H           -5.60108507077030       -0.02757841331836       -0.12715310269673
H           -4.06823143725716        2.17045315487613       -0.04259286906256
H           -0.22462731870104        2.61424708517875       -0.01332682681609
H           -1.68300811502772        3.65669651437510       -0.02253363857980
H            2.63226329466649        2.15800573415905       -0.00289804020869
