29
 energy: -51.211407030669 gnorm: 0.000986533943 xtb: 6.6.1 (8d0f1dd)
N            4.36223641401100       -2.25425340908989       -0.33841414270952
C            3.56356603021930       -1.43149982497082       -0.24615011209909
C            2.59753703337084       -0.41684262373192       -0.11844317953276
C            3.06257421850125        0.83353324506988        0.39376788294137
N            4.20414330223575        0.85884961664767        1.10718198410569
N            2.53834595913138        2.01030600460076        0.11594342435704
C            1.34136079916526        2.29147276642065       -0.32512264372993
C            0.15849613282604        1.53418505465139       -0.30269368524499
C           -1.05631063279711        2.26301241112052       -0.39867123039599
C           -2.28004879213989        1.67112830138828       -0.25851573018665
C           -2.34091467471694        0.30035331625622       -0.00246968258474
C           -3.41799628174037       -0.55985265977305        0.23832467054150
C           -4.76315488481028       -0.20050365001246        0.28436283956327
N           -5.87439970474347        0.09667820767013        0.31630001398684
C           -2.89000645812041       -1.86245511890385        0.44801986866937
C           -1.52519658628746       -1.83548956416103        0.30016773229449
C           -1.12667143174362       -0.49881599378848        0.01382660364019
C            0.11402034816892        0.10173321234185       -0.19236546661071
C            1.27604517155569       -0.72336997584426       -0.46414335561916
N            1.04165810872935       -1.90628020997274       -1.05377558643520
H            4.58906258804689        1.75489765135506        1.35207099758578
H            4.75552383723648        0.02743306137701        1.23120876778481
H            1.24309469217126        3.33255424683159       -0.61996699812377
H           -0.98702787977736        3.32928137958413       -0.55454610105839
H           -3.19065360583370        2.24841911262900       -0.32290272144368
H           -3.48375561924970       -2.72639990229096        0.68779950470052
H           -0.87731283440636       -2.67614651015065        0.47460358907623
H            1.79969436664303       -2.53906736347261       -1.24994453539624
H            0.10142128685496       -2.15488853028194       -1.31389990047641
