30
 energy: -50.929840224629 gnorm: 0.000626443891 xtb: 6.6.1 (8d0f1dd)
N           -5.55472328342924       -0.51211556125658        0.02320393210885
C           -4.40900179349944       -0.41621494250260        0.01405244100574
C           -3.00621619779466       -0.27980914041992        0.00523875488746
C           -2.27686267625790       -1.46886272852232        0.01078626826524
C           -0.91827282834843       -1.67493788229747        0.00534095196187
C            0.16945838752145       -0.78126688587363       -0.00103457128749
C            1.45189891136253       -1.36540415591519       -0.00562921901116
C            1.60379613372608       -2.76281478472655       -0.00925104400133
N            1.82130256827207       -3.89340263605075       -0.01259578344829
C            2.65906844066833       -0.61548603052517       -0.00522500271604
N            3.84959678586937       -1.24448162409311       -0.01360235763109
C            2.55370640966322        0.77448879281816        0.00167525896954
C            3.53044658688347        1.78224706337216        0.00741160377176
C            2.87528952157593        3.00913538723117        0.01311089649107
C            1.50283415934145        2.79662256913135        0.01037157837525
C            1.25970767198989        1.40826669094558        0.00338570974267
C            0.05503981691380        0.67357230403163       -0.00121586240544
C           -1.13954964960371        1.39335927571741       -0.00879141784947
C           -2.48855341508553        1.03994360136964       -0.00771663139308
N           -3.38922976358748        2.05677220525542       -0.02500211569895
H           -2.88467240023488       -2.36654709679554        0.01967457821235
H           -0.62777933930779       -2.71953949467328        0.00819597923452
H            3.89769481738536       -2.24915421174962       -0.00742008714828
H            4.69746223950625       -0.70834349340339        0.00014242401862
H            4.59653857841310        1.64177308898938        0.00769725866844
H            3.35501798841387        3.97119319641282        0.01885695395357
H            0.76995013440781        3.58267660026291        0.01485919429118
H           -0.99145416128641        2.46645797305615       -0.01622579338470
H           -3.07963675016649        3.01092938356321       -0.00919391730726
H           -4.37542824171216        1.86409937454816       -0.00269541467560
