27
 energy: -47.755589156049 gnorm: 0.000875494119 xtb: 6.6.1 (8d0f1dd)
N            5.88449049016136        0.58399533434849        0.01458219255692
C            4.78185576351511        0.26289438971247        0.01007626624152
C            3.43234948680885       -0.11498251501830        0.00414309947651
C            2.94896838812874       -1.42840966338934       -0.00335499170279
C            1.54894156745584       -1.35731571080586       -0.00565869044855
C            0.54652028504169       -2.31280361171056       -0.01231260693223
N           -0.73098995678311       -1.99352650978267       -0.00986482343956
C           -1.13290986642755       -0.71655673678513       -0.00262736033230
C           -2.53857414617005       -0.59814064120485        0.00352355251478
C           -3.23396476763680       -1.83725022574782        0.00389192568092
N           -3.86755371872961       -2.79266306360576        0.00528182725638
C           -3.36759576728277        0.52833376103291        0.00881977214149
C           -3.03551441024758        1.85745831808826        0.00655668492915
C           -1.75028308668901        2.43774082115597        0.00089721198630
N           -1.69888861424515        3.79409808815477        0.00575048548882
C           -0.52884680658540        1.76088201468679       -0.00009634775533
C           -0.19777076351095        0.40771344158857       -0.00026433997692
C            1.16740482215305        0.04194928080273        0.00024606120716
C            2.34881045405961        0.78704651797634        0.00584261015025
H            3.54429953311951       -2.32189978643010       -0.00641913559166
H            0.76150956265289       -3.37406165546141       -0.01923674415020
H           -4.42800179297690        0.30391419243172        0.01379138084427
H           -3.85963876591756        2.56012773916111        0.01004397801959
H           -2.54097969756929        4.33906383625338       -0.02254370347536
H           -0.81757550211750        4.27372633366570       -0.02547960876605
H            0.33223943508914        2.41957359037627       -0.00116007470153
H            2.45772777710339        1.85628515570636        0.01163540187835
