25
 energy: -42.704394697196 gnorm: 0.000623966797 xtb: 6.6.1 (8d0f1dd)
N            4.38253028318921        0.89314174006351       -0.08443217767328
C            3.09071288700263        0.51127427920018        0.00063967911193
C            2.80232083102067       -0.84905392159236        0.17135016561681
C            1.56872700751188       -1.47659157966764        0.15808018888274
C            0.28930773011162       -0.95305335675520       -0.00471036983571
C           -0.83227863497393       -1.85389506749722       -0.06934459942714
N           -0.63272932640544       -3.22190123028757       -0.10034075990954
N           -2.09604162981331       -1.49088147486830       -0.04430939104584
C           -2.37762112107198       -0.18861803303540        0.00491156135668
C           -3.57704991692552        0.50904809826482        0.05208399760829
C           -3.20888207304746        1.86181381926626        0.02414305288017
N           -1.89162485663338        2.07013634167508       -0.03155451663563
C           -1.33634528787205        0.83983385358582       -0.03484644529538
C            0.00245958644382        0.47355819389883       -0.03915085069890
C            0.95458798600722        1.52455490859815       -0.03622579586795
N            2.24943234706744        1.56171063235741       -0.05984966753444
H            4.57409187397836        1.87594378120089       -0.17206097317826
H            5.13733618093381        0.23613794933088       -0.00903849795852
H            3.66516594600013       -1.49124662998309        0.30013397236166
H            1.61677906070592       -2.54858826966223        0.30376253147133
H           -1.50427630694164       -3.71690029291573       -0.22442130772576
H            0.11859057107512       -3.57284603109163       -0.67126137023513
H           -4.57086514716334        0.11125987864915        0.09452826385622
H           -3.87698415641786        2.70614205250108        0.04305182657512
H            0.49063919731812        2.50833381276429       -0.03516924139943
