32
 energy: -53.561600164001 gnorm: 0.000389944971 xtb: 6.6.1 (8d0f1dd)
N            0.08606304362058        3.08836549815117        1.27318453391679
C            0.50748636444327        2.11766907153603        0.80193580902146
C            1.07352378373334        0.96788892317296        0.26149728404555
C            2.44871895452160        1.08830669902555       -0.06138257949813
N            2.95158556918606        2.36229054548751       -0.13106894759028
C            3.32612877417938        0.06353919568489       -0.38144181839638
C            3.13052320049633       -1.31241131353333       -0.23043631626313
N            4.24470840904749       -2.10221114154091       -0.39693893304357
C            1.96379979761479       -1.96279887607789        0.15365195153654
C            0.63676400278092       -1.52085151011277        0.26711818537276
C           -0.31986458899606       -2.52733609842434        0.53078761279167
C           -1.67422217513589       -2.30497534270484        0.49810253851504
C           -2.11765287703880       -1.04185999285198        0.15136853820253
C           -3.40117407952891       -0.50692844053354       -0.11761313720256
N           -4.58375193709798       -1.16540849219723       -0.09719117923343
N           -3.32613463238787        0.77558594715504       -0.50071505092028
C           -2.03303705841284        1.13623585531866       -0.45938693105567
N           -1.71684225196105        2.35479798263768       -0.95192875085786
C           -1.18691975801746        0.04174209741825       -0.04247431169484
C            0.18733982548535       -0.15389548034809        0.11975150563913
H            2.41012761064861        3.11230317415097        0.26594778836716
H            3.95021546480597        2.47797239967952       -0.12607342386230
H            4.32305650751126        0.37175716720118       -0.67438598506753
H            5.03040157637174       -1.71119404170027       -0.88759179416410
H            4.10591449387521       -3.09201333436382       -0.50815604658550
H            2.08326748396934       -3.03281256178205        0.28825198831706
H            0.04525368307473       -3.52100529186817        0.74802601530858
H           -2.36827461831833       -3.11006394415854        0.69623681504153
H           -5.41255432544535       -0.60124948402131       -0.17585968814136
H           -4.64611350686276       -2.02337085670636        0.42199957142882
H           -0.94699061002809        2.86945762158702       -0.55059668632978
H           -2.53686944893470        2.90362502781902       -1.16658742719827
