28
 energy: -46.678178218262 gnorm: 0.000839817585 xtb: 6.6.1 (8d0f1dd)
N           -5.37880205038478        1.15663346120028        0.00976247848958
C           -4.26900485296612        0.85113118642281       -0.00010542718572
C           -2.91569176746970        0.47020532299529       -0.00568118748839
C           -1.98666452957823        1.52524776862160        0.00004806744174
C           -0.62150899233162        1.50269939956410        0.00132352793074
C            0.29647890859141        0.42368271508492        0.00035640032396
C           -0.07265648674494       -0.98446622036369        0.00051100311785
C           -1.36911842687562       -1.50061952217599       -0.00508898519850
C           -2.63704746311093       -0.91653928341934       -0.01233221665749
N           -3.69771382415274       -1.76397398375439       -0.04374758505468
N            0.85283205239208       -1.96794328582618        0.00409489934173
C            2.13762765615729       -1.68905444699626        0.00607683832663
C            2.62154707185375       -0.39542085386713        0.00286973057031
C            3.91597192044235        0.17435858447473       -0.00317128384604
N            5.09557752074976       -0.50052771492860        0.04801767801443
C            3.76084605686842        1.57617752846210       -0.00622751626533
C            2.41754603722034        1.89191428480958       -0.00513100942059
C            1.66492593512718        0.69125843774126       -0.00010941940715
H           -2.44268988617397        2.50971827210566        0.00456312992972
H           -0.14894956632300        2.47624286573953        0.00514648884736
H           -1.37078917415491       -2.58515927166822       -0.00639549404820
H           -4.63546226262386       -1.40532503891475        0.01073664669932
H           -3.55104896400317       -2.75497595652297        0.01862192973248
H            2.79444493298062       -2.55328659102771        0.01162040684856
H            5.09004140271184       -1.48512691699251       -0.15463452787465
H            5.94040615619611        0.00240482225349       -0.16308508607189
H            4.57310286547458        2.28075603241918       -0.01046070750820
H            2.02372400592782        2.89149141076327       -0.01011096298754
