28
 energy: -51.485709741707 gnorm: 0.000369462368 xtb: 6.6.1 (8d0f1dd)
N            2.80577206655515        3.25813042115686       -0.18495549028409
C            1.96356858296965        2.48132007716209       -0.14403032631201
C            0.89273986088417        1.56041295352100       -0.09973861409158
C           -0.40666688672116        2.02497925496004       -0.18254952041553
C           -1.51998645452297        1.16529233731694       -0.09255262981531
C           -2.79960872337619        1.75344436454341       -0.11966750352934
N           -3.92879905873447        1.29196610009567        0.36262231282171
C           -4.16036690834608        0.04988690500060        0.71482831260539
N           -3.61795491289281       -1.03600166100044        0.22421361131125
C           -2.42104387478766       -1.15073280386629       -0.31015805293133
N           -2.21129127454326       -2.22526634991751       -1.07777025361548
C           -1.29989179696559       -0.26504476904257       -0.04795511837813
C           -0.00012666171636       -0.74425152217113        0.03160358295557
C            0.53181944404456       -2.04891042072672        0.14924506871986
C            1.91135353357880       -1.95506585253359        0.23010437247344
N            2.80564245288412       -2.97586253668213        0.30535879209893
C            2.29373216051916       -0.57150677527592        0.13181963736905
C            3.61710822693366       -0.13899430604780        0.15740113390671
N            4.73391065060013        0.13560736716875        0.19672958600230
C            1.12570747301340        0.18090839226827        0.03490305275478
H           -0.58261172132280        3.08705529458826       -0.26913575037941
H           -2.85985518252959        2.78705836286427       -0.44811560721177
H           -5.00771439817947       -0.10462133351708        1.37444593911620
H           -2.97976852815575       -2.84469228360464       -1.27223397692059
H           -1.30259085770830       -2.39808604524597       -1.47279615315279
H           -0.02626175035020       -2.96150913718308        0.25153802364323
H            2.47789399692092       -3.88018575752971        0.59788992026993
H            3.75866525044932       -2.74251175270182        0.53075079478907
