34
 energy: -61.838339940993 gnorm: 0.000547124353 xtb: 6.6.1 (8d0f1dd)
N           -3.97182050020734        3.17458606281171        0.27351718377575
C           -3.34706958510263        2.21384324923095        0.15747048964998
C           -2.61352798083418        1.02343143529102        0.02677637435305
C           -3.32545377999225       -0.17123553292905        0.29314373450760
N           -4.51466479977546       -0.09538651187618        0.92836921206794
N           -2.99091782972701       -1.37250493974253       -0.13398721611490
C           -1.81419045301991       -1.83847651690792       -0.47632685395814
N           -1.85005833406644       -2.96346981826945       -1.21158239430769
C           -0.51953713052269       -1.31188090200161       -0.10612776156639
C            0.52680014268087       -2.21918978902381        0.19105128769892
N            0.25516815473241       -3.59436629416898        0.33068789632664
C            1.83775335621185       -1.79482928930345        0.32874158277393
C            2.14152511891843       -0.46111937434299        0.12412485091626
C            3.33639542924941        0.28928411465235        0.13153768824863
C            4.63608363490113       -0.14866088153940        0.33469856249886
N            5.72597123765781       -0.49060018959483        0.48915181614442
C            2.93745352051254        1.62114076950781       -0.14126227827557
N            3.75225830198255        2.70675352884527       -0.18162979799800
N            1.61316044732875        1.72966496311736       -0.31670822943587
C            1.09227672590352        0.48427000682596       -0.15428550922682
C           -0.25321831159569        0.09352005304110       -0.19883179296218
C           -1.24760697750174        1.13748440470467       -0.32546482550049
N           -0.80079764461254        2.34001580128207       -0.68366536200233
H           -4.92746718870031        0.80016435696717        1.12473143128197
H           -5.07970137755544       -0.92414451024523        0.98435897066180
H           -1.00061267133895       -3.47255525790591       -1.39168996363223
H           -2.74475851071209       -3.36058710178742       -1.43940061154753
H            1.04442497437221       -4.08975754720731        0.72382566638318
H           -0.59043928467949       -3.79921438087519        0.84630194908715
H            2.61614101937400       -2.50486755077508        0.57121567237233
H            4.73923882121134        2.54195643735659       -0.28354472079075
H            3.38005689809784        3.54666120121580       -0.59002419938312
H            0.23696914489824        2.45839727299183       -0.67012882556042
H           -1.42830291708721        3.12821391055474       -0.64393473998656
