28
 energy: -50.701530611270 gnorm: 0.000649514746 xtb: 6.6.1 (8d0f1dd)
N           -5.46474276453488       -0.23084556199238       -0.07040504910224
C           -4.36762950454508        0.11370308128949       -0.05895551293217
C           -3.04785853501728        0.55860081964067       -0.04500677630220
C           -2.61560764071600        1.90053213796193       -0.01466728390088
N           -1.29435606983329        2.02603631232413       -0.00133363091906
C           -0.78902588211901        0.75856542318755       -0.02521911077808
C           -1.86507035382504       -0.20291358191873       -0.05624707339711
N           -1.65672171311216       -1.51640821716107       -0.10907337942132
C           -0.41325302808015       -1.93667601715023       -0.06994008784476
N           -0.27461186600411       -3.30753801657643       -0.10826761374764
C            0.74519844315906       -1.08424167555277        0.05419401286452
C            1.98543456973142       -1.70725759870949        0.30047122451892
C            3.25355135145839       -1.20091612504038        0.27379014263570
C            3.63617821415250        0.12663071600457       -0.05166365181271
N            4.94248261080209        0.35208949383225       -0.30433076783730
N            2.89214187031839        1.21308302947998       -0.08476391085372
C            1.58178384958733        1.34545599751931        0.06339206380038
N            1.16230137690625        2.59370535026332        0.19775192331999
C            0.53358807759986        0.33051447595588        0.01548027661969
H           -3.24629683298822        2.77205826714574        0.00316541256303
H            0.49423974071266       -3.69512129085514       -0.62911227709813
H           -1.15990308582132       -3.76440034861081       -0.27349902504698
H            1.91987582006066       -2.76125950265275        0.53919547131492
H            4.06801230384252       -1.88720749422150        0.46602360142796
H            5.23141527364691        1.28735914433267       -0.52980851251239
H            5.61435494841057       -0.39305781704595       -0.30624080005314
H            1.84988322485791        3.32895171454315        0.18463766740896
H            0.12691055184998        2.75496058290691        0.17379753628582
