32
 energy: -54.356734866938 gnorm: 0.000797642638 xtb: 6.6.1 (8d0f1dd)
N            3.80703939482990       -2.87405492812114       -0.34116997251099
C            3.23960001643603       -1.87719295158646       -0.25637804313234
C            2.60340027926996       -0.62037381070392       -0.15210011827802
C            3.47161665367628        0.43523053939255       -0.38285271204376
C            3.25170962659654        1.80100198043912       -0.26814178405815
C            2.07182026360844        2.40903856657366        0.11706693792135
C            0.80487743134098        1.85360772402838        0.26079111704415
C           -0.12073766808451        2.73383712836560        0.84873009153519
N           -0.83203281408437        3.48267063516149        1.35988186944425
C            0.32513978137373        0.52336204615440       -0.01309253733784
C            1.17894125529122       -0.64631847970115        0.06652109006826
C            0.59617306085156       -1.88535062317421        0.26874094464483
C           -0.79122517538502       -2.10489057239767        0.28622123671707
N           -1.27374664398114       -3.36737745736662        0.52285364787907
C           -1.61273603081725       -1.01705934278836        0.03631772805587
C           -3.02364966395164       -0.88875025814442       -0.06833210283741
N           -3.94338048214423       -1.88036117336034        0.15997651581355
C           -3.31129517341735        0.40933180860088       -0.48766375988138
C           -2.12805024479970        1.14332521083793       -0.58610903314606
N           -2.06428304355309        2.37326839484368       -1.14712816015542
C           -1.03335690915957        0.28868186359278       -0.19568735964214
H            4.48542154081516        0.14096930097998       -0.63327640255029
H            4.10561005113367        2.44545777806391       -0.42407598538760
H            2.12977064151103        3.47040592344766        0.33589533849353
H            1.23828862998082       -2.74617232398700        0.39030741306604
H           -2.14998835421586       -3.60292908385348        0.08515862981984
H           -0.58421925848112       -4.10347717839012        0.49653498357211
H           -4.90134775440943       -1.56463827299696        0.19644901750101
H           -3.70749119688913       -2.54205337247956        0.88392359582275
H           -4.29263972465247        0.79145011106533       -0.70090005058907
H           -2.93076421011725        2.87332805952706       -1.25160153021363
H           -1.23787412077337        2.93521490707343       -1.04431710363330
