24
 energy: -43.008813819935 gnorm: 0.000591998823 xtb: 6.6.1 (8d0f1dd)
N           -4.44668446476135        0.84421263042981        0.17401761640850
C           -3.21172510413019        0.32375847475448        0.03656665229414
N           -3.00599974371805       -0.97433575876204       -0.21499808638482
C           -1.66550132352483       -1.08538902041077       -0.22023772837709
C           -0.83012266991699       -2.16198226176067       -0.43725665047921
C            0.54253138194665       -1.96821523749821       -0.32892777465441
C            1.12238253775940       -0.72208595536760       -0.11015239757785
C            2.53434562865166       -0.61218837514148        0.16024026344193
N            3.17056048989160       -1.64598592804986        0.73151570950871
N            3.31317070501230        0.38941270475959       -0.21130429900587
C            2.95006846591204        1.61130056209894       -0.49989350193757
N            1.90790579085712        2.28480638911397       -0.06977585404224
C            0.75849546394965        1.75423412306524        0.27823761461363
C            0.28594607389906        0.45511589482704        0.04438531172903
C           -1.10245330424989        0.23340439216214        0.05036733853963
N           -2.10532355964517        1.09814929208780        0.19659712943799
H           -5.22080425024507        0.28360451955689       -0.13435098812829
H           -4.53006322736982        1.84496771005782        0.16207039550555
H           -1.23287811248903       -3.13767822513981       -0.66051396894888
H            1.19037901747051       -2.82385000975040       -0.46639501616668
H            4.16261964746219       -1.57764048797014        0.88359475115559
H            2.67325024933317       -2.47274123845497        1.00982773006452
H            3.68470835533217        2.19248159604905       -1.04984254165931
H            0.03373862717286        2.45825733414341        0.67424920706301
