28
 energy: -50.711006741593 gnorm: 0.000862604292 xtb: 6.6.1 (8d0f1dd)
N            4.11968662136486       -2.46487952629778       -0.66664751111627
C            3.22280647557258       -1.77654197949865       -0.47105251659883
C            2.08933964116862       -0.97619818289659       -0.22236789232674
C            0.84111457192370       -1.56862190347703       -0.07844829257131
C           -0.33712748071066       -0.83875586905744        0.13816882207242
C           -1.54932944088105       -1.59708155248549        0.40042297391449
N           -1.41430950852268       -2.77882571253501        1.03006297169542
N           -2.76784305970584       -1.31122887664050        0.03688390781737
C           -3.27118775816752       -0.14716692877155       -0.36475083562485
N           -4.47016931071328       -0.25296047560541       -0.98195256340004
C           -2.76204329075921        1.12293274012543       -0.08960700671670
C           -1.45932939301046        1.46425704966724        0.26430287779814
N           -1.19094355323489        2.73376621233347        0.57794906447747
C           -0.30775214738773        0.57953429507069        0.19154406058508
C            0.96274899929927        1.16846199750252        0.13774108567618
N            1.32396507160899        2.47165235604461        0.23556454668063
C            2.65112861393171        2.45168895795627        0.07946333480380
N            3.21183838834129        1.26326752350038       -0.11434954536685
C            2.17270521737916        0.41182581171180       -0.08407461821738
H            0.78011842340204       -2.64252133039944       -0.18958193731144
H           -2.24011797991645       -3.32497638933199        1.20276625330742
H           -0.52424627359751       -3.09155331002753        1.37318522213006
H           -5.00898556265682        0.56146077476489       -1.21002837801357
H           -4.87934842416725       -1.16433788169508       -1.08312727792863
H           -3.45482297561337        1.94841205367958       -0.20373928156876
H           -1.91836470111232        3.42533520523372        0.50627505514477
H           -0.18693174885709        3.00798720527117        0.57173490770325
H            3.23336352362192        3.35434576495615        0.11744077705419
