28
 energy: -51.469373995093 gnorm: 0.000958447034 xtb: 6.6.1 (8d0f1dd)
N           -4.45451429222759        1.88321356190739        0.49760875732547
C           -3.59404677547350        1.14399629165418        0.33381620237140
C           -2.55735453281764        0.19519883286963        0.14279754356949
C           -2.97679106927182       -1.14380649120219        0.01821946872891
C           -2.20468328975416       -2.23620469334496       -0.24021068932032
C           -0.79464379267124       -2.38677199247312       -0.31423265411366
N           -0.39682546614834       -3.59968315510868       -0.73030642177546
C            0.20463918878270       -1.42309909620536        0.01579709543270
C            1.55002164415716       -1.84859945098367        0.24727581483145
N            1.86931214670261       -3.19522759892579        0.47701813534565
N            2.60984117700034       -1.06578701733690        0.24544317779935
C            2.44067295685556        0.22573476295898        0.05303244265621
N            3.41009894105558        1.15002546039378       -0.01128644168043
C            2.78942960660912        2.31677534129273       -0.10623474936636
C            1.37752943232641        2.20980833518485       -0.10752323794374
C            0.49394267076536        3.28145734391111       -0.19899712374890
N           -0.22570919699609        4.17673558794758       -0.27656983913303
C            1.11365726512806        0.82670919818999       -0.02308216680189
C           -0.03022683698353        0.01455051624218        0.00374278164735
C           -1.26836984104525        0.68136029317327        0.05062890517891
H           -4.04606072272755       -1.30542894229691        0.08054690841025
H           -2.74560326125973       -3.16204995791337       -0.40173266276785
H           -1.07694001035154       -4.27858894471056       -1.02476338740176
H            0.59159174613876       -3.80370921017551       -0.80833706860620
H            2.86262763724137       -3.26160322637400        0.66990023786375
H            1.32217536065540       -3.63826298009403        1.20452898774267
H            3.34989938253598        3.23177857250214       -0.17691237051919
H           -1.18666923672655        1.76239937951693        0.07457400837485
