28
 energy: -51.483946349229 gnorm: 0.000780346982 xtb: 6.6.1 (8d0f1dd)
N           -4.74153087719189        0.27134924984522       -0.08801095069533
C           -3.59847535092701        0.16390873898376       -0.04328212938555
C           -2.20074110935624        0.00351189067820       -0.00400602343406
C           -1.65219748879537       -1.27509075288397        0.08580276062635
N           -2.49405489703084       -2.35690219753247        0.18667961874507
C           -0.22891638933650       -1.45217700396337        0.07609998877674
C            0.30035073671776       -2.75607535990795        0.15196521827885
N            1.41999412638175       -3.20855940973787       -0.35729657934639
C            2.43509935319743       -2.48000766269612       -0.75505102755419
N            2.81298879035343       -1.34446410274268       -0.23056870492129
C            2.04529757843822       -0.47424650164197        0.38163324983918
N            2.60637250268983        0.30938941082870        1.30023796801198
C            0.62504543180578       -0.28460512075848        0.06972053611594
C            0.06977037288811        0.97122616980425       -0.03190337946302
C            0.62609034823902        2.29478475126359       -0.13120565135250
C            1.97205022998277        2.63590982460151       -0.18904070093951
N            3.09168112683861        2.91123092662852       -0.20725102864162
C           -0.43792703412977        3.18741878190617       -0.24931389776958
C           -1.65237653779760        2.49130756676206       -0.20611012547178
C           -1.37010332497032        1.13876318629882       -0.09579977103459
H           -3.47084903690884       -2.16176032946079        0.02774156097656
H           -2.18200972044983       -3.25171510046592       -0.14511413357897
H           -0.32810560604374       -3.54269136573509        0.55723268970008
H            3.11802425419442       -2.94161991401928       -1.45785523057231
H            2.12062254531757        1.11899755546991        1.65032858490717
H            3.60636084425481        0.26708609686028        1.42155564185861
H           -0.33098587832790        4.25193479696375       -0.35649550334285
H           -2.63111096983494        2.92934876555221       -0.25903956713216
