28
 energy: -46.682967970555 gnorm: 0.000868661525 xtb: 6.6.1 (8d0f1dd)
N            2.06982004930426       -3.73535630936898       -0.01214624757090
C            1.87120206332932       -2.60322763241963       -0.00782491485555
C            1.69096589246540       -1.20112094411550       -0.00291976056720
C            2.90374172950978       -0.51611646211484       -0.00110299936794
N            3.20489180657382        0.76126142887895        0.00128260967168
C            2.33127432563768        1.76524049587488        0.00463233826418
N            2.93557716667556        2.97941774474454        0.02133948069675
C            0.92476166398817        1.75020224240402        0.00265649665525
C            0.00533958011796        0.71046914330257        0.00006000868379
C            0.34383366246918       -0.71709367757227       -0.00176588740131
C           -0.67011407732748       -1.65467961978939       -0.00338777049150
C           -2.04011931171807       -1.33303296239930       -0.00391125865272
N           -2.95863237957660       -2.31965296487067       -0.00780061128967
C           -2.39495822356454        0.01731745044695       -0.00135371570297
C           -3.64079109013993        0.66614393762218        0.00010849827556
C           -3.40734931088320        2.03721270992503        0.00163407622528
C           -2.03703214466039        2.26851589669290        0.00100823610182
C           -1.36990779658221        1.02682027472069       -0.00045754905345
H            3.79149909044653       -1.14526207936125       -0.00359264279483
H            2.41074307456582        3.83152168172211       -0.03152417345923
H            3.93888624844396        3.00271432221096       -0.01262939023150
H            0.48458193402716        2.73920950709360        0.00470003534503
H           -0.40661256176151       -2.70335891764610       -0.00473701094333
H           -2.67226790620568       -3.28203328624597       -0.01130165177685
H           -3.93689047165318       -2.09810783480540       -0.01114203149444
H           -4.60793800766142        0.19517111251134        0.00089538502824
H           -4.16625334103961        2.79901864785554        0.00314946566724
H           -1.58496968438070        3.24379177710314        0.00150625543860
