33
 energy: -58.877030676994 gnorm: 0.000756965541 xtb: 6.6.1 (8d0f1dd)
N           -3.41604989351259       -3.55719925564677       -0.99844796270851
C           -2.81373578677334       -2.62879340773764       -0.68944915864946
C           -2.08894810779158       -1.48089081884723       -0.30036586884075
C           -0.74561537358792       -1.71073332998071        0.01363011042696
C            0.31491383925326       -0.84507818312308        0.21101341789802
C            1.61411296165851       -1.44656257299097        0.40040593587296
N            1.70313623892268       -2.77912282399084        0.74074574629154
C            2.76913806743529       -0.72123936020347        0.14517823875996
C            4.02939853754137       -1.32118457206855        0.31901901107559
N            5.04686389158572       -1.82858344351754        0.48712157631252
C            2.68233499835033        0.62495723424699       -0.27714933820555
C            3.63161955081214        1.54553486273842       -0.64740082883553
C            2.96819305043598        2.77591814128044       -0.88664970246307
C            1.62762904738041        2.64714176821619       -0.62083988240490
C            1.38174341689603        1.29602876586299       -0.23496757379420
C            0.23584015899519        0.59940981443616        0.10306388672493
C           -0.96244629461138        1.33020656612314        0.45993597285474
N           -0.74565263606255        2.53156784011392        1.02468476065172
C           -2.29702901496088        0.93986350285668        0.28173656985994
C           -3.26642351328366        1.91723842658997        0.59218036186320
N           -4.06002815482613        2.70790054593035        0.85250049428588
C           -2.82142277067592       -0.28132231777780       -0.22077246253811
N           -4.12483591718417       -0.30518667602719       -0.57256973898674
H           -0.47923208487097       -2.76058525887355       -0.02835162955695
H            1.00980470582055       -3.15678235246762        1.36521183784200
H            2.63981575563826       -3.11676822115372        0.90484737045426
H            4.68476821524498        1.36723473427329       -0.75533729105241
H            3.45259612646909        3.67381682410325       -1.22699911073008
H            0.88558846727456        3.40799559565569       -0.78418650589725
H            0.20034473976150        2.84615601202830        1.16654272785941
H           -1.51570481715761        3.11968200896050        1.29793900226635
H           -4.70215976818532        0.51013028443721       -0.45512883415468
H           -4.55225684529519       -1.17178148934336       -0.85377698917962
