29
 energy: -55.216823352046 gnorm: 0.000724528955 xtb: 6.6.1 (8d0f1dd)
N            0.27164683235831        4.30976795388640        1.08273643837762
C           -0.04963037733535        3.24410392962665        0.80061403438280
C           -0.48930672811712        1.94697322673291        0.47251411699341
C           -1.85573738278289        1.67177356877939        0.44749158929007
C           -2.25829473393846        0.42373360922800        0.03673312779744
C           -3.53382776008065       -0.18123351804532       -0.18698923184160
N           -4.74160590049868        0.37391677178237       -0.02623869516173
N           -3.39988960045720       -1.45409000759949       -0.60702716026398
C           -2.09671412319378       -1.72262903860223       -0.63714547136812
C           -1.30514033643794       -0.61935582933969       -0.24690622309707
C            0.07578832667168       -0.40786066989404       -0.09499893545380
C            0.99417745942621       -1.46951315521804        0.03004286093045
C            0.51573573197556       -2.78912316356914        0.07580684658860
N            0.23239130216544       -3.90421810734439        0.13384113995937
C            2.40695636694822       -1.36922252892780        0.29528375039881
N            3.02099984391639       -2.44734744442052        0.81867525884133
N            3.21339624859398       -0.36652141757093        0.02182647407755
C            2.82136705419900        0.84101827201097       -0.38708443508623
N            3.75856366704921        1.56747902201621       -1.02389360163432
N            1.69053162956155        1.46988625452245       -0.13984226487927
C            0.48608978558151        0.98518564764162        0.10015636933598
H           -2.55912800154730        2.45211132336516        0.70367167321970
H           -5.55323250515326       -0.18588721919596       -0.21902469061490
H           -4.84186550140483        1.32638115238244        0.27255750499577
H           -1.76803824764159       -2.68699090339858       -0.97438292560847
H            4.01675734201843       -2.40467808991711        0.94402430294883
H            2.52453842920989       -3.30753486082357        0.97464571731012
H            3.57671738149641        2.54321646707129       -1.18066027574189
H            4.69633711331720        1.21174465732063       -1.07344069129645
