31
 energy: -54.665909955341 gnorm: 0.000824927529 xtb: 6.6.1 (8d0f1dd)
N           -5.16680842034361       -1.52614177125465       -0.20255571306695
C           -4.14159321784059       -1.00964606851945       -0.11799034568770
C           -2.89245632611789       -0.36792073671789       -0.01379086824111
C           -2.94457948817381        1.00396484279460        0.36828189348458
N           -4.12396327882900        1.45609419067811        0.86190030682206
C           -1.92718937902771        1.92203426332516        0.17855281137647
C           -0.60198625897515        1.75096017083346       -0.23370878849602
N            0.07989392711434        2.84404995894522       -0.57443263923218
C            0.15283631124429        0.51384515085168       -0.19153564153993
C           -0.38499985277908       -0.79613269096192       -0.08565394620244
C            0.48002567835759       -1.88461248230173        0.17949043841871
C            1.84364393941883       -1.76338326522077        0.28156172786022
C            2.40844146981835       -0.51729026087091        0.05255607411291
C            3.72965454516865       -0.01144755283800        0.00894299114115
C            4.91251715147283       -0.72566713885236        0.17922640258353
N            5.88633581831549       -1.32245409627173        0.31790618659069
C            3.59006043277902        1.35629621889501       -0.25204866356867
N            2.31473188579084        1.72856506437893       -0.36891045089167
C            1.55874854648167        0.61519632442347       -0.18900655044383
C           -1.76909582443586       -1.14225534256297       -0.31773033524535
N           -2.00066320042459       -2.37487799699029       -0.81937907938526
H           -4.26011421746681        2.43880619000947        1.01456684819771
H           -4.92604301827547        0.85053195923900        0.89424209307213
H           -2.21391565637848        2.95514561118410        0.34691775121628
H            1.12217263891717        2.73761486358092       -0.62371408656566
H           -0.35542762098603        3.74689814245156       -0.47911237512098
H            0.04484727197738       -2.85323808091209        0.37901636915061
H            2.46076530849981       -2.61720155077165        0.51990730875860
H            4.37994202431575        2.07737737421059       -0.36493043404588
H           -2.94454464409628       -2.69317311942384       -0.96291156140858
H           -1.23877731692293       -2.95473702253233       -1.11906214634328
