28
 energy: -46.669592424194 gnorm: 0.000794695723 xtb: 6.6.1 (8d0f1dd)
N            5.11107245896976        0.56105696531817        0.08537253865542
C            4.07057508077728        0.06732160495961        0.10063086575678
C            2.80943109620506       -0.51897818318119        0.11314661013214
C            2.51742476263586       -1.89377486455817        0.28141606911073
C            1.15660795257856       -2.08787433715313        0.22520366964108
C            0.52196473478937       -0.82608423084408        0.04303985515689
C            1.58321116838928        0.15969152204737       -0.00205094412542
C            1.29393666370614        1.51009603819410       -0.11273345224342
C           -0.02115456145081        1.93713792216506       -0.12317646686392
N           -0.28446468334454        3.29971640363332       -0.22045403638273
C           -1.09418740990509        0.99872844623691       -0.07789941681639
C           -2.40783639464681        1.50941535082347       -0.17768059903105
N           -3.52695102443134        1.03587518172290        0.28745312628500
C           -3.81592108515814       -0.19449656093658        0.64887229771528
C           -3.15977963894407       -1.33804296515957        0.23814452904082
C           -1.84333875640276       -1.41340670680171       -0.23562345978857
N           -1.46891833358899       -2.57575069697771       -0.80287820751904
C           -0.81117867017539       -0.42036283142098       -0.03964440237226
H            3.25778982808142       -2.65989945073868        0.42917335498016
H            0.67614702330553       -3.03340579364592        0.40206709337242
H            2.09825118180807        2.23137787042374       -0.16317424044447
H            0.53681953141951        3.87368116383074       -0.09889122821657
H           -1.07644994244710        3.64586316202310        0.29681874021346
H           -2.51677656094124        2.50245270866755       -0.60279860948206
H           -4.75550783169721       -0.29058145262677        1.18153714242298
H           -3.70577800308482       -2.27280224455198        0.28217084805528
H           -2.14903689989152       -3.29608973605166       -0.97159215940150
H           -0.54828704725659       -2.66107783319787       -1.20074699425157
