31
 energy: -53.845552381368 gnorm: 0.000888764409 xtb: 6.6.1 (8d0f1dd)
N           -5.18396552145584       -0.92090252264173        0.48129782994277
C           -4.09992732188723       -0.57160607364364        0.31210323000211
C           -2.79252332791243       -0.10560708329317        0.09557480078599
C           -1.80336790120614       -1.06434754738645       -0.11955925264647
C           -0.42137102052513       -0.95065168791930       -0.20993365974325
C            0.33711229599419       -2.17158260283466       -0.26948486426598
N           -0.31125891460681       -3.38906266357803       -0.42741438432110
C            1.70324413553180       -2.17775725669877       -0.06983504366916
C            2.38536094957028       -0.98620350966658        0.13508211177228
N            3.68200826185348       -0.80744884996016        0.35782772717610
C            3.85524131897802        0.53895817789973        0.42768930255017
N            5.10784338370768        1.04796089000849        0.61773321753167
C            2.67974145618949        1.25778063775459        0.20702227221686
C            1.67616129323006        0.29202943262842        0.02126731490802
C            0.30292594340869        0.31015809894559       -0.20345047711442
C           -0.34060969229088        1.54550577102022       -0.56312710230862
N            0.40528767708574        2.45001019149822       -1.22245059787686
N           -1.55848268048052        1.97144194561920       -0.28732553680513
C           -2.60094852181481        1.30568630307202        0.15956440023661
N           -3.60582485269851        2.06813789600379        0.63769095266678
H           -2.19033468483360       -2.07605080530727       -0.10047259231315
H            0.31912490399151       -4.17003495999983       -0.52876026913636
H           -1.08225083311125       -3.42021261755083       -1.07593383896748
H            2.24919345196900       -3.10981815927102       -0.07374748607330
H            5.17401670057378        1.97964202017839        0.99303933098905
H            5.78301303321002        0.38354108867148        0.95997271339010
H            2.58636822792139        2.32570780290697        0.27181144354612
H            1.34770849060377        2.22524063085082       -1.49044280433172
H           -0.01534002361896        3.32362047376893       -1.48545832971873
H           -3.50008095114992        3.06664614474856        0.62663690717018
H           -4.48249162482709        1.65384295777576        0.90250708540739
