29
 energy: -55.200678327021 gnorm: 0.000622340758 xtb: 6.6.1 (8d0f1dd)
N           -1.82740381533309       -4.58119621601374        0.34430547386512
C           -1.65559174144471       -3.45222165703565        0.23718580984554
C           -1.45371677841325       -2.05746707240592        0.10801128466131
C           -2.60401071901300       -1.26500124260569        0.07312208164677
C           -2.70370652501600        0.09676396921784       -0.12729445592482
C           -4.03225100408325        0.57053793029877       -0.22356191926809
N           -5.11005247730810        0.96232837481875       -0.30031541060832
C           -1.68173708185386        1.11082010070945       -0.23227052358837
N           -2.13606169673479        2.31147955218768       -0.62008646005511
C           -0.30259026241709        0.95891813132060        0.04875199945499
C            0.51382768028825        2.10844504033510        0.27639588343208
N           -0.04351354234808        3.35997983657817        0.55056372159295
N            1.83598669636940        2.14717623369271        0.24373975434137
C            2.48501893323252        1.02205038273221        0.02078146725887
N            3.79418143843264        0.80915392907019       -0.07938485794513
C            3.88031623111466       -0.53042941120443       -0.19574707940181
N            5.05271143508731       -1.15475273382742       -0.32330820683590
N            2.71024177035469       -1.22320286775580       -0.18163065439852
C            1.79159215325759       -0.26619596512644       -0.06341300054002
C            0.39060168616435       -0.33353111808107       -0.01012737929128
C           -0.13701912788319       -1.61887784380670       -0.00550796371174
H           -3.54706758193316       -1.79475652878427        0.16103847307514
H           -1.48520412340946        3.07713751789998       -0.73220446948707
H           -3.10953182950306        2.43626094038809       -0.84738664297257
H           -0.77551575432957        3.36510196593098        1.24843442981691
H            0.70052428332514        4.01130593719825        0.77155825734930
H            5.07152850708174       -2.15511476272450       -0.39634392569551
H            5.89531655019810       -0.61066807900364       -0.33773410357865
H            0.62377804701753       -2.39043636960347       -0.04999353223772
