28
 energy: -51.485370935652 gnorm: 0.000527740161 xtb: 6.6.1 (8d0f1dd)
N           -5.72361330584104        1.15028013819954        0.77397568962833
C           -4.63034224186016        0.84805899066311        0.59184805280931
C           -3.30111493140721        0.46671588670209        0.37250898127318
C           -2.85961838638201       -0.86011864261860        0.20570466067331
C           -1.47505803766030       -0.83119688751480        0.02941730095235
C           -0.55014015292558       -1.85635931624226       -0.24645898107584
N           -0.93493205389866       -3.13405722788424       -0.39301784478461
C            0.82422361231181       -1.51812115194241       -0.31685750994331
C            1.77147385338402       -2.54625633341276       -0.45686118861140
N            2.51039073007551       -3.41732593663886       -0.58698135130231
C            1.26688377319863       -0.19609956870004       -0.13726730062657
N            2.50975665031562        0.01380624044658        0.22403895655901
C            3.21594332235148        1.12421020565090        0.32926343154043
N            4.32696217334670        1.01617909266311        1.08868837159323
C            2.97377610952523        2.32808528547200       -0.37995085096758
C            1.74490033242767        2.64410309656604       -0.91220516483225
N            0.57325181968370        2.09509706801499       -0.65308250322662
C            0.26836169884513        0.90873492350854       -0.20422886065963
C           -1.06157736892190        0.54980369094429        0.06856771703903
C           -2.20358426980028        1.33216960527062        0.27489189078361
H           -3.50096079605360       -1.72315143964681        0.21137971711777
H           -1.89867447825235       -3.38810359764834       -0.27085993585029
H           -0.24909548684098       -3.85457752752307       -0.54702008067776
H            4.55853891363357        0.11372318294731        1.46634280162943
H            5.01053991014468        1.75067934246351        1.10796026386690
H            3.79275207862235        3.02451202507177       -0.49449990799091
H            1.66686844717350        3.52704515659390       -1.53902865748829
H           -2.23042198339461        2.40165135840144        0.35746632357857
