33
 energy: -58.097173339971 gnorm: 0.000790339032 xtb: 6.6.1 (8d0f1dd)
N           -5.46510953911942       -1.32570564543769       -0.16170598658782
C           -4.37199708016896       -0.96703361277844       -0.10402978536019
C           -3.05675495485181       -0.51631971719816       -0.04926607225020
C           -2.66061692472405        0.84327487074844       -0.09228866081123
N           -3.52715422518177        1.90141092988821       -0.15384301005011
C           -1.25131830545566        0.89347036552533       -0.02556411184350
C           -0.34038920679373        1.94002499394711        0.04739443019672
N           -0.72835581364469        3.25001368013306        0.08122619380153
C            1.03713025656021        1.60469838691804        0.04218523170188
C            1.93236492615997        2.68258472030174        0.11108404317058
N            2.61609184717037        3.60747733605683        0.18594831587291
C            1.54035770273215        0.27751393648246        0.00003282424353
C            2.93038498757490        0.12907133291950       -0.05946760157604
C            3.73072967849570       -1.01449601073734       -0.08600237211866
N            5.07102695113992       -0.81930369853509       -0.20095457543219
C            3.28381737030961       -2.34559238175007       -0.02207280428528
C            1.97348098423798       -2.77632897688732        0.06644195126518
N            0.82517747209492       -2.14635070248808        0.08004009603742
C            0.58005605064471       -0.81840053382576        0.02834698941897
C           -0.76400220889612       -0.46470598101721        0.01112898613036
C           -1.89982786779975       -1.32621257409149        0.01496408206274
N           -1.81688355996476       -2.65822808489883        0.06158339575416
H           -3.21243202049888        2.71768314069285       -0.65492386493431
H           -4.48871412732613        1.65035687132117       -0.33450913840642
H           -0.00702916861953        3.92850621568807        0.27625942858479
H           -1.63264605892999        3.45069915504111        0.47375461046047
H            3.48488255590286        1.06060797601087       -0.10007031176375
H            5.45013138211844        0.10869178801347       -0.13734470212786
H            5.70066747986055       -1.59581815675757       -0.10819800032406
H            4.04733729695585       -3.11214931222509       -0.03584170116118
H            1.84294447575085       -3.85639787524658        0.13132231808085
H           -2.63640485250369       -3.23874046718782        0.05484261630688
H           -0.86403518523061       -3.01311664792578        0.08988615734539
