28
 energy: -50.682643917506 gnorm: 0.000907038391 xtb: 6.6.1 (8d0f1dd)
N            5.18595473055001        0.82489256042738       -0.38270781401384
C            4.08258032699812        0.52089604391828       -0.24074302453290
C            2.74087476224911        0.16040907724101       -0.06599581225735
C            2.42649545023884       -1.21553974466309       -0.09195539938035
N            3.44700169608580       -2.07992649399123       -0.31687960845267
C            1.16434607372336       -1.78138008168818        0.12239157464710
C           -0.09769220285272       -1.20298008214703        0.22735015090865
N           -1.08782798803322       -2.10391063645322        0.39646540573140
C           -2.35174950536156       -1.74876280325619        0.32472585448576
C           -2.73401226558872       -0.45235888097890        0.03406863138480
C           -3.95402642775093        0.25480997325790       -0.13243433078324
N           -5.20362962484295       -0.24644572993296       -0.14710730706151
N           -3.73138919754356        1.57577420917529       -0.32450892399693
C           -2.41696453487770        1.76306334565560       -0.28527752227680
C           -1.71290103644708        0.55830665737260       -0.07213422282666
C           -0.36369137919756        0.23175927168904        0.08836095221358
N            0.51267077832505        1.22825034215276        0.14519605250691
C            1.82193846473214        1.22880262119822        0.18179316740515
N            2.35395529479387        2.44506424781385        0.44633890636572
H            3.28639644548756       -3.06894106337010       -0.26409561854811
H            4.38906490822880       -1.74154577048373       -0.40839675520818
H            1.13862441414722       -2.86427960059906        0.15140843585833
H           -3.06817828680174       -2.54506851667703        0.49565389160681
H           -5.96847554263912        0.40555519788010       -0.16058003411257
H           -5.36904217906195       -1.19007020197950        0.15259782583228
H           -2.00121617271381        2.74545775907663       -0.40764548289756
H            3.34222074373216        2.61068650875633        0.36866256535458
H            1.71923158592031        3.22106506730492        0.51837214294766
