30
 energy: -54.929567991373 gnorm: 0.000557461842 xtb: 6.6.1 (8d0f1dd)
N            3.62618284853762        2.95328077061965        0.20340289730508
C            2.91791102102518        2.05040240615328        0.15742126721228
C            2.11893733008308        0.88970797090985        0.08732481244769
C            0.75774273042190        1.00791051286996        0.25386738112035
C           -0.26562620675889        0.04571985825223        0.08214801205283
C           -0.07371461682845       -1.38160780176041        0.04308282424194
C            1.18880334891472       -1.96847179691007        0.40999767747804
N            1.18469080574489       -3.13005490978177        1.07971422975653
N            2.39117608844905       -1.53110424712489        0.08994868058019
C            2.81526036321800       -0.33219625114953       -0.21932962300738
N            4.03632964980588       -0.25180257071632       -0.77598451229890
C           -1.19590023859941       -2.20801144271078       -0.21168257104571
N           -1.06773644211102       -3.59843667263417       -0.31517847681346
N           -2.43692870614243       -1.76987251493347       -0.33334137515159
C           -2.66440615205172       -0.47569337457314       -0.21096770401267
C           -3.88618516980044        0.21579905070427       -0.26429678593180
C           -3.61074513664234        1.55887387584961       -0.13283502543802
C           -2.21135517029813        1.76112482364251        0.01803028703834
C           -1.62310380621137        3.01321853429018        0.16941551667396
N           -1.15178404424749        4.05796174837206        0.29259478378594
C           -1.59132516082627        0.50039059459642       -0.01782980898756
H            0.40256672656834        2.01486892804576        0.43756440091012
H            0.31286201579161       -3.59747708834320        1.27221826747530
H            2.06462148095779       -3.55040399877674        1.32410043944716
H            4.56269039495156       -1.09565271131809       -0.92103738199516
H            4.47477961463574        0.64294679824432       -0.91432943584256
H           -1.95199123845884       -3.99732495016003       -0.60527310376179
H           -0.30381143302431       -3.91360170266738       -0.89784928925505
H           -4.85103225432043       -0.23320111116131       -0.39682365109108
H           -4.33094293637672        2.35798367076869       -0.13446845199956
