25
 energy: -42.703399527719 gnorm: 0.000867799713 xtb: 6.6.1 (8d0f1dd)
N           -4.31703480558470        0.99472918255485       -0.23892354653837
C           -3.06526132538818        0.46338570386227       -0.18721105724345
C           -1.85156172577144        1.17631820836919       -0.21876363876903
C           -0.84624729586462        0.21546863607332       -0.07585854251530
C           -1.58638244043953       -1.06137904075351        0.02893312681470
N           -0.99474181599567       -2.23638938278568        0.14313271301499
C            0.31679420221018       -2.24736532946192        0.13751200190097
C            1.16247198797697       -1.12050287388928        0.05475851716871
C            2.54569895125552       -1.37726567351661        0.06540427134914
N            3.56164581265320       -0.64491958803701       -0.29582941588874
C            3.57719109369617        0.66585249022544       -0.47768892826775
C            2.65259407703965        1.60359255994753       -0.08210074307026
C            1.29191738926726        1.40050566629123        0.23052596677894
N            0.60762857358350        2.48260623495043        0.64908922402658
C            0.55018644003875        0.19777759379076        0.01582775233935
N           -2.90054076422832       -0.86002669063828       -0.00430859056212
H           -4.43237386624834        1.88572217021509       -0.69162500893925
H           -5.05581599428523        0.32292247064346       -0.36770526497812
H           -1.77378062225580        2.22570566755713       -0.43819553734479
H            0.76879765097187       -3.23033889841674        0.17923620598084
H            2.83106480185161       -2.39512296585053        0.32078205000512
H            4.51475574552708        1.02626065058138       -0.89059638467728
H            2.97689774266331        2.63798660182988       -0.07653739513568
H            1.10142605276365        3.32697013206457        0.88141803499141
H           -0.34146593573706        2.36407751609261        0.96633084865963
