28
 energy: -51.477514908072 gnorm: 0.000853840993 xtb: 6.6.1 (8d0f1dd)
N            5.09320628422599        1.05546885022109        0.58082548397554
C            4.05298501147998        0.59467588616823        0.41424106214984
C            2.77630056171849        0.06376875314810        0.21570756769793
C            2.46671162277636       -1.27249173562037       -0.06786287417018
C            1.08204963041539       -1.38757404969379       -0.14776195554172
C            0.23258696649911       -2.47641482982635       -0.39174792482156
N            0.68124089941317       -3.69305016057240       -0.74324225176781
N           -1.08709733364833       -2.35822939109381       -0.22545260021800
C           -1.65037247079901       -1.18733214949097        0.02739655263963
C           -2.98575219358493       -1.27702128640596        0.48049946058076
C           -3.86757024147969       -0.27465550934222        0.82238545648313
N           -3.87115188027831        1.00309396404695        0.48242896824834
C           -2.90584364982190        1.63298905293373       -0.13881780909368
C           -1.55772401640297        1.30269063465616       -0.30611659642969
C           -0.81138586986743        2.31118843090006       -0.94123797662681
N           -0.23943585434552        3.14794614457517       -1.48655448169748
C           -0.89346414477197        0.06718196556301       -0.03034318075735
C            0.48958456493980       -0.07424153466336        0.03986362146469
C            1.58098776097029        0.82432054913226        0.28445622650631
N            1.56200366236586        2.10560527008646        0.70319669247537
H            3.19075178210676       -2.05813802503643       -0.18432065203432
H            1.66332624305883       -3.87969627574848       -0.82358822136458
H            0.01431413381136       -4.43680701737073       -0.84980384110593
H           -3.29983475000763       -2.29569751073299        0.66689417030736
H           -4.75939250305705       -0.56394185357018        1.37052447517655
H           -3.20242211052740        2.61154619865962       -0.51035093922345
H            0.76621524364613        2.69622288037231        0.53029418693708
H            2.45556997466291        2.56724581640492        0.77763726131018
