26
 energy: -42.425621754798 gnorm: 0.000603114716 xtb: 6.6.1 (8d0f1dd)
N            2.55882926392175        1.53738957211751        0.94464060615167
C            2.08273112481379        0.47557718827845        0.26961348437668
N            2.99801227577344       -0.38881257496516       -0.11656561493614
C            2.88133120340269       -1.65767454867152       -0.41521261165293
C            1.80376619634202       -2.49887993377168       -0.14574186410848
C            0.51452797307610       -2.09469425132696        0.13296260548310
C           -0.06174096750250       -0.81012137299360        0.06624764972897
C            0.66851619293731        0.43368473102013       -0.01992449193322
C           -0.04877209195877        1.62621895341754       -0.23486361392520
N            0.61383420747412        2.85977354761310       -0.37860623503279
N           -1.37258918853421        1.71502175511353       -0.27508392535447
C           -2.07760689093057        0.62074839764542       -0.08644863152564
C           -3.47494261026667        0.45651930622902       -0.04779399826794
C           -3.72382400729033       -0.89180732736032        0.12018727451971
C           -2.51285056955871       -1.60700460287654        0.20112287555356
C           -1.46555819035923       -0.70251207742421        0.08577246749909
H            3.55083435705882        1.60035584186563        1.09535242040731
H            1.96100795532667        2.33539744958341        1.09709308864042
H            3.78332423453851       -2.09036854352497       -0.83584088386234
H            1.98944675454188       -3.56282757726229       -0.20917393636817
H           -0.20185394992671       -2.88866013909104        0.29842079028112
H           -0.06792348644270        3.57422756687157       -0.60547588190649
H            1.36531912747327        2.84599713076169       -1.05704658780709
H           -4.19898303962140        1.24184171847351       -0.14609499166104
H           -4.69903088215763       -1.34177370808795        0.19062005344416
H           -2.44296724933089       -2.67167680843433        0.33522351385616
