31
 energy: -59.439983826945 gnorm: 0.000740759582 xtb: 6.6.1 (8d0f1dd)
N            5.35093395332180       -2.00431415847889        0.27217678100206
C            4.26175577599242       -1.63814099592713        0.24248938917303
C            2.93117746186461       -1.17947063577102        0.20467551109302
C            1.95032113383197       -2.08164077023886        0.63302047589961
N            0.66224370457311       -2.04682579879881        0.48191231357423
C           -0.14977013409488       -1.05169796263811        0.16154385780939
C            0.18566729711593        0.37478352704846        0.18305056497978
C            1.48195092768548        0.84912413885659       -0.14642633019615
C            1.55282529791496        2.18296110534532       -0.60885353879827
N            1.69317268601961        3.22326073753808       -1.07891573205624
C            2.71484124498259        0.15514637524825       -0.23289021489836
N            3.78837841328542        0.82552817340632       -0.69705101482956
C           -0.85273358267279        1.30109716255197        0.38688338454660
C           -0.58065943113903        2.62073723319121        0.79291128537230
N           -0.48306469677860        3.67995613994300        1.23081220835737
C           -2.23171770877278        0.95626737691396        0.27660657759279
N           -3.18530462764022        1.89279198132547        0.47855843067299
C           -2.52241652263789       -0.35112294757344       -0.10076782656274
C           -3.71310845621263       -1.07128077554215       -0.36890370405736
N           -4.98214938548947       -0.59847167872518       -0.46601886156203
N           -3.46506838230919       -2.39494642363734       -0.49842741779922
C           -2.16275079758278       -2.57090877990184       -0.33417259469518
C           -1.48797893944242       -1.35066030361689       -0.10328885489565
H            2.30960219890246       -3.00056973089518        1.08811846634213
H            4.68901766475342        0.37645383633719       -0.71569001676179
H            3.71890170620900        1.79775559006083       -0.94855505548250
H           -2.90444540612150        2.78562864209822        0.85450671199524
H           -4.13057718236474        1.59357842159204        0.64449929053765
H           -5.65318076968687       -1.28602843233093       -0.77466883561663
H           -5.11746256855862        0.33430282486122       -0.82219013077095
H           -1.72576101794759       -3.54910961554413       -0.39666285466659
