29
 energy: -51.204103828967 gnorm: 0.000675094162 xtb: 6.6.1 (8d0f1dd)
N            0.83098544267786        4.12600606537873        0.55797255807431
C            0.40060285169696        3.06754107366059        0.41569568543735
C           -0.19349287343127        1.80717177172959        0.24489233358847
C           -1.60148231387857        1.77118510133837        0.17702800892209
N           -2.32669288443445        2.89596278149685        0.32080469323078
C           -2.20520415858470        0.53115790357097       -0.08451533184265
C           -3.53316816037309        0.17316989117485       -0.29654284016352
C           -3.57947167925830       -1.21261084327254       -0.52616089679091
C           -2.30919010264578       -1.73490183049018       -0.43356731059988
C           -1.40582362178408       -0.67271441152850       -0.14733087637513
C           -0.02895099252392       -0.65840752156645        0.05512383516422
C            0.68936074401733       -1.86104891646755        0.30833745244837
C           -0.02667618992626       -3.02184106052919        0.68491847569354
N           -0.48856344754597       -4.00362195263115        1.06180962126695
C            2.06816187021332       -2.09253646267150        0.33000909738243
N            3.08868365915073       -1.34120134488473        0.00387443087222
C            3.04987598887663       -0.03319259335408       -0.23574334413574
N            4.23263879970016        0.47404327073512       -0.64960572487605
C            1.98715034942522        0.86929627001062       -0.04118986444752
C            0.62268001623507        0.65267814415216        0.10616399456311
H           -1.87146899044597        3.77967133496212        0.47333330484261
H           -3.32559785580205        2.86305185860232        0.23466527525754
H           -4.38494716467358        0.82998275515182       -0.29923196242828
H           -4.47121065897082       -1.77097011982887       -0.74461110231680
H           -2.04600235244439       -2.76110511593373       -0.59722615923767
H            2.36755406927305       -3.09918300080526        0.61236229133631
H            4.37106644710854        1.46234144510577       -0.75449951087898
H            5.01801805652472       -0.15017621723414       -0.70543028586671
H            2.28328300542369        1.91222343052791       -0.08023752392048
