30
 energy: -54.926633326101 gnorm: 0.000704643875 xtb: 6.6.1 (8d0f1dd)
N           -5.61776298233858       -0.05902172794730        0.68677895109895
C           -4.49977304731620       -0.22316503871001        0.47720889455563
C           -3.12512263288346       -0.40675357993745        0.21815061071204
C           -2.63672470429914       -1.69825291848775        0.42902580627530
C           -1.43822992727782       -2.22102898268213        0.01448041746954
C           -0.31513810517298       -1.54054153040041       -0.48021436874245
N            0.58584824893528       -2.25792194134232       -1.16191133630719
C           -0.02023095746332       -0.15134938181192       -0.23089283623079
C           -1.00751478638582        0.89397355695161       -0.20628951397728
C           -0.55115183308855        2.22289056424177       -0.06150927756504
N            0.69486571706892        2.61189536403413        0.05019158121659
C            1.62527527234476        1.67696854003122        0.04850817869091
N            2.93675383846023        1.89267369848508        0.18948054089699
C            3.50669078736193        0.68835836298713        0.24369416332297
N            4.84318207776258        0.54141836154129        0.36222814569966
C            2.56741867173194       -0.38048389689599        0.09605456262585
C            2.91191203803349       -1.71541881535059        0.21778711021584
N            3.22917052761019       -2.82194573250938        0.31746131818290
C            1.31007229022383        0.24989502727456       -0.05660243951403
C           -2.42483865725591        0.71469270576342       -0.29005111683508
N           -3.17167808219034        1.72185831619000       -0.77736234437906
H           -3.35074255725504       -2.39579397466362        0.84949195479186
H           -1.33898407855560       -3.29814260393018        0.05897388846862
H            1.45725288305964       -1.84321642880129       -1.44942328424230
H            0.52474731851023       -3.26236981508750       -1.18901220227218
H           -1.26602534836793        3.02814584411003        0.05315141068737
H            5.36849788644464        1.36270277135788        0.60752525959481
H            5.21324052174440       -0.35835257590267        0.61642761699366
H           -2.74470158229888        2.56950710185606       -1.10703829430923
H           -4.17562996984308        1.68312129453615       -0.69883167442532
