27
 energy: -46.955445223475 gnorm: 0.000538858066 xtb: 6.6.1 (8d0f1dd)
N            4.86163147630793       -1.36692829278596        0.30927069902253
C            3.81508320377067       -0.89481387607732        0.22297042167499
C            2.54838931666780       -0.32509027685789        0.12139962817487
C            2.27828338647968        1.05444382557194       -0.05736005105674
N            3.21190602511503        2.02232270869111       -0.15263543018202
C            0.87192016643930        1.22289955980851       -0.07318308542043
C            0.07295625752731        2.34090436116531       -0.23057745852003
C           -1.30039044249962        2.21107447928148       -0.14044912291677
C           -1.91671342319199        0.97303313741281        0.07833339092216
N           -3.18602994943259        0.98772953868262        0.48494948128550
C           -4.05308145267483        0.02196059634282        0.56200887237363
N           -4.12067052391386       -1.12561450142721       -0.08644161448934
C           -3.05506311103754       -1.74183909344520       -0.57706895108110
C           -1.71269261444596       -1.47294312909204       -0.40048875968579
C           -1.11414308374297       -0.24670956795177       -0.00818868597278
C            0.26578495683641       -0.08571751259125        0.05585995469635
C            1.32521022522338       -1.02839144737702        0.19678612258609
N            1.21778637177298       -2.36472876267597        0.38142292455943
H            2.93949985026345        2.96252782954292       -0.37388430486971
H            4.18161631703259        1.76900120246363       -0.22867991556177
H            0.50872783721815        3.32015291520799       -0.37257165115484
H           -1.93759935993680        3.08023438355576       -0.17927509957448
H           -4.93112061550685        0.25103652351549        1.16216931048461
H           -3.30651583896633       -2.64806476522045       -1.12200285219149
H           -1.02772316581497       -2.21634342943357       -0.78936290875325
H            2.05343111078822       -2.86476327183130        0.64176234478137
H            0.34247893512151       -2.73378657807520        0.71501958636898
