27
 energy: -46.962460889367 gnorm: 0.000913670790 xtb: 6.6.1 (8d0f1dd)
N           -2.85679442339529       -3.48673891817751       -0.00210667967033
C           -2.44889352887378       -2.41166212386548       -0.00706935145630
C           -2.02110185556114       -1.06774124413669       -0.01005230714480
C           -3.08330393387605       -0.15295896079121       -0.06434384157518
N           -3.11343885932606        1.15035031390871       -0.06086226940765
C           -2.02103838307853        1.94507541071302       -0.00073494216770
N           -2.34731506781789        3.25359881705608        0.04767568983906
N           -0.73114901586901        1.70771551193486        0.00617550476263
C           -0.06624476959300        0.54686377697401        0.00349954245692
C           -0.61940334788629       -0.80778883682621        0.01926211456576
C            0.25173845608952       -1.90001167452521        0.04633785843031
C            1.63193543016351       -1.77141897387929        0.04802552183034
C            2.18103876799221       -0.50682454987045        0.02052377784002
C            3.52605630570375       -0.02935449582653        0.01807440992520
N            4.63762444807579       -0.79319195513599        0.01060680008316
C            3.48109756973024        1.38034535057904       -0.00678784219119
C            2.16491120693909        1.78922377182907       -0.01756895274871
C            1.32502869021754        0.64429317423772       -0.00105411367195
H           -4.07628798209517       -0.59711885050935       -0.11326767081590
H           -1.61754824492432        3.94173866721039        0.07160651148770
H           -3.31548904180966        3.51607430211174        0.02156384982900
H           -0.17845290598019       -2.89125802245435        0.06252414278059
H            2.24693864252915       -2.66080697599849        0.06699254617715
H            4.56426474061679       -1.78763999068669        0.12942367604330
H            5.54078496358984       -0.36501314330277        0.11021558406302
H            4.34563474546162        2.01879171421417       -0.01456773019439
H            1.81209284137727        2.80245709411733       -0.03411492627014
