26
 energy: -47.235655216022 gnorm: 0.000768534747 xtb: 6.6.1 (8d0f1dd)
N            5.15232308732282       -0.34597725872602        0.41534362880277
C            4.03649225448055       -0.08261377071583        0.31369090455257
C            2.66928373368943        0.19360123935498        0.16744762468420
C            2.18873285849995        1.45388256258704        0.54078752496397
N            1.04577907612392        2.01826309564529        0.28129133737365
C           -0.09484302160849        1.48494878567374       -0.14075136630336
N           -1.03825906851159        2.33777513003091       -0.50176237253354
C           -2.31414368425268        1.97777724626959       -0.52066701152825
C           -2.72562401450701        0.73893324491154       -0.07459452419729
C           -3.98464787686467        0.09530900536831        0.06051761493291
C           -3.78005018027425       -1.23948643377974        0.33231890082956
C           -2.38868015653927       -1.49663515096633        0.37419086639304
N           -1.75705793069979       -2.66174987779897        0.58266981525579
C           -1.71554725880932       -0.26422246476784        0.14938307057930
C           -0.37130678024758        0.02885563551925       -0.02922306348676
N            0.52119650595827       -0.94853236078973       -0.18233891088500
C            1.82893752826135       -0.86666942104455       -0.30608276053586
N            2.42898938019706       -1.97014242437624       -0.80188024900455
H            2.88818861928681        2.10643825161201        1.05775934664578
H           -3.00787255838085        2.72952950373216       -0.87435028525165
H           -4.93819625344412        0.57746030144241       -0.05209980493515
H           -4.54401293822259       -1.97950717442458        0.48644093635913
H           -2.26320855638405       -3.52960249003025        0.60659156746747
H           -0.75633458540221       -2.65720335931706        0.45404306187433
H            3.43122528294451       -2.02671642201905       -0.85405621121041
H            1.86608850467849       -2.74941685888921       -1.09295958354056
