33
 energy: -63.704454595270 gnorm: 0.000808725041 xtb: 6.6.1 (8d0f1dd)
N           -5.29111104092103       -2.48400483014500        0.19995500106667
C           -4.37166370262331       -1.79871024735154        0.13934191468156
C           -3.23405786564463       -0.96107119187012        0.07207837636937
C           -3.49100508778373        0.35231167915073       -0.30170310844271
C           -2.64966973111699        1.44565021691807       -0.23409682274695
C           -3.25564031837303        2.68445089878642       -0.55216542920999
N           -3.74268664473844        3.69089449964283       -0.81253805312352
C           -1.27636961488257        1.51043763175937        0.15421160505782
N           -0.78590520272893        2.71234705827574        0.42354076052450
C           -0.35404969205529        0.40239910453247        0.16274880185053
C           -0.69064821113892       -0.99808623548261        0.12001178417030
C            0.32995785027829       -1.93856711861015       -0.10913604391655
C            1.67072765308358       -1.61104220409260       -0.22973488224148
C            2.61436079281614       -2.62024911895649       -0.51659969198379
N            3.35330724411030       -3.46667179638167       -0.74561809874971
C            2.04649196661665       -0.27861192815523       -0.03673624942381
C            3.26481989157426        0.41120520463563       -0.01316366619370
C            4.56610944124113       -0.05894923344136       -0.16133210172740
N            5.66431350594694       -0.37933233645317       -0.27933933474282
C            2.91257070727049        1.77342234002665        0.20477022729688
N            3.77335776384542        2.79732963601076        0.34197747447707
N            1.58623199978783        1.93831456854401        0.30877284077782
C            1.01697453401364        0.71475906111853        0.16792706346436
C           -1.98921261639980       -1.55704395968224        0.37966552739760
N           -2.04167368335899       -2.79801350369597        0.89812943460168
H           -4.51274845514984        0.56228245826112       -0.59882068301517
H            0.25492169897208        2.77752229356316        0.50305769072190
H           -1.37245028266961        3.52601085540824        0.31384319723534
H            0.06748874942456       -2.97406590925060       -0.27267857904208
H            4.75111988191795        2.64284320528266        0.17189070929071
H            3.42239412727340        3.73649655450796        0.38949711670515
H           -2.93229448936674       -3.25433095791062        1.01644206705644
H           -1.20821124112267       -3.28706414234640        1.17209062921527
