28
 energy: -52.261559172237 gnorm: 0.000973890391 xtb: 6.6.1 (8d0f1dd)
N            5.38482699096754       -1.97559331931850        0.26599169390499
C            4.51101350645184       -1.23895734994631        0.17709020509591
C            3.43296893847649       -0.32620793437861        0.07741532978125
C            3.73489235076228        1.03798117032004        0.23031190411437
N            2.98668008210624        2.03100218018060       -0.16706528866506
C            1.71936226900106        2.09026611652805       -0.44002535798501
C            0.67298552069832        1.19553282514744       -0.09789300314740
C           -0.62840783541441        1.72335275775616        0.03872036972451
N           -0.83881921000351        3.07510228721230        0.06081227756539
C           -1.74884227868259        0.86086167979476        0.10648809073958
C           -3.03103717573022        1.43023900303381        0.26164016662009
N           -4.03651026294545        1.96194359983652        0.41292336815423
C           -1.57134426706508       -0.51150611183776        0.00420721827349
C           -2.48995287189879       -1.58516510060040        0.00352768548729
C           -3.88080766799683       -1.49655948712678        0.08360176513361
N           -5.02768244159020       -1.45165944720449        0.14445609961940
C           -1.74299684984723       -2.77355229914065       -0.09443708826476
C           -0.39021398748084       -2.47105771686984       -0.15882251953205
C           -0.23509659695685       -1.07438700864890       -0.10155483996524
C            0.89883762605039       -0.24723577073777       -0.08064550568911
C            2.16101004787063       -0.86241857223288       -0.11177404255053
H            4.71112823342870        1.32060736274657        0.60768022443785
H            1.43298812660883        3.00840424944719       -0.94571916312872
H           -1.77559880230228        3.38840686126093        0.25921988562012
H           -0.09591717137987        3.68852248854953        0.34295833675574
H           -2.16866996797703       -3.75987211274506       -0.12353594611366
H            0.39073863283930       -3.20382436500866       -0.23813269318985
H            2.13506415050861       -1.94188464941652       -0.18980259889610
