27
 energy: -46.151273161755 gnorm: 0.000905947608 xtb: 6.6.1 (8d0f1dd)
N            4.40946220048960        1.64162300821570        0.03013461487748
C            3.22298628862779        0.99369804986676       -0.00541224611724
C            3.22107306515294       -0.39276635194387       -0.15017773935025
C            2.13845688438374       -1.26725368466811       -0.12615588116765
C            0.78421346497997       -1.01830531069429        0.01427024118591
C           -0.13501618037169       -2.12688740137261        0.06494182767467
N            0.33682901663843       -3.42676309098449        0.09295611279902
N           -1.44429272179744       -2.03010312236365        0.02904472399171
C           -1.98517297368256       -0.80727378361666       -0.02202888752713
C           -3.29552593824592       -0.38233237315988       -0.07809733847933
C           -3.21935444868063        1.03445995503547       -0.04827843360359
N           -4.27619070705345        1.88609593403756       -0.03057889256577
N           -1.96458273200680        1.50540054124232        0.01820048628971
C           -1.17497638170596        0.41244876443570        0.02942782268462
C            0.20947392116512        0.32729666530037        0.05297797332111
C            0.92609272977943        1.54529135230910        0.09109612044140
N            2.18573489635440        1.85531415696789        0.09722587025220
H            4.39026094516507        2.64408327486549        0.09496948122563
H            5.28067290232867        1.15939004614006       -0.09292029276899
H            4.19686078300293       -0.84722411922404       -0.27254853502966
H            2.41560603488322       -2.30660822314784       -0.25175439369281
H           -0.41668826134133       -4.08769394755396        0.21653894714534
H            1.14403776723257       -3.61786544166878        0.66339003022352
H           -4.18904923533423       -0.97109140394736       -0.12692618378596
H           -4.06779035007851        2.85801154149704       -0.18464578293128
H           -5.16624957948118        1.54570005866608       -0.35017731402069
H            0.27011427469582        2.41210702256592        0.13245447092808
