29
 energy: -50.388316195389 gnorm: 0.000853963415 xtb: 6.6.1 (8d0f1dd)
N            3.88217959127511       -2.78859562104946        0.35494909992607
C            3.13481868480300       -1.92360253017113        0.23498387162649
C            2.23030699333692       -0.85050012519886        0.08891734482018
C            0.89831108494813       -1.19437166381810       -0.03423373810267
C           -0.27591219793510       -0.43006055275662       -0.05666199108654
C           -0.38774427014342        1.01389511095119        0.00261343888996
C            0.71121544537285        1.89169207659822       -0.28472491685146
N            0.41108032653717        3.14723691041696       -0.67115833365750
C            2.08301508544020        1.61830768695610       -0.21653122905780
C            2.79652721770386        0.45647426300279        0.02902228089691
N            4.14093683221337        0.55042084127825        0.16438952493710
C           -1.68357091268986        1.54329035941507        0.24620078871165
N           -1.89495439620412        2.91543339177522        0.50169185054867
N           -2.81212606362854        0.85363999619908        0.24475880905755
C           -2.75969500809819       -0.44098193803330        0.02638628151252
N           -3.79798732133375       -1.28277071551710       -0.04284779139642
C           -3.25509841158700       -2.49300258917720       -0.18477763335355
C           -1.85281135595819       -2.49125839314878       -0.21081169323866
C           -1.48173361128952       -1.15705517372792       -0.09269814621529
H            0.71733573599839       -2.26281169492321       -0.04796168808834
H           -0.55890194846003        3.43169280302428       -0.71860627098635
H            1.14166135054242        3.78698152264299       -0.92569578944665
H            2.70874085013920        2.49263028549868       -0.37150858870877
H            4.60531627621289        1.43395836006195        0.05868766698191
H            4.69782961439524       -0.28039996286755        0.26799719521779
H           -1.34409743431257        3.27281517720043        1.27353396874765
H           -2.88539670539677        3.04854510216544        0.67734003738264
H           -3.89254363874321       -3.35620952146979       -0.26964225489453
H           -1.23060212994117       -3.35973547761895       -0.31865393567537
