31
 energy: -54.644666018800 gnorm: 0.000849759471 xtb: 6.6.1 (8d0f1dd)
N            4.07261776902363       -1.87318980674231        0.60118075027468
C            3.20958500890302       -1.13409101343445        0.42440776660985
C            2.19000086863143       -0.19425212604443        0.19126458442994
C            2.58042706724869        1.02130321275831       -0.44725897681657
N            3.68921006601451        1.03811805690182       -1.21041354126769
N            2.01217751450477        2.18458215992302       -0.21113372274843
C            0.80936268397330        2.45410562352485        0.22298172057112
C           -0.35367977349708        1.67259632091438        0.17907523558982
C           -1.62648088928649        2.33712334006418        0.15168742299154
N           -1.70512960224592        3.71971603760218        0.26845237260360
C           -2.79324991619202        1.61406393018773        0.03387151694650
C           -2.75839479680527        0.22915881841012       -0.11033593817379
C           -3.76218577164399       -0.70963994396928       -0.33593586634387
C           -3.16906862728093       -1.96507879788985       -0.44547576486001
C           -1.78755793747388       -1.85800690502354       -0.24809331007897
C           -0.88747441278259       -2.90623297088789       -0.39310542349803
N           -0.13448245308427       -3.77358951246520       -0.50172461409083
C           -1.48923410466824       -0.47150622052101       -0.02537703529135
C           -0.31076150747890        0.22945239010202        0.18456761843685
C            0.88446042337832       -0.49520009328525        0.59195953710541
N            0.70074983425736       -1.55042859873435        1.39888746217418
H            4.03540153643209        1.92481639875621       -1.53439203846635
H            4.26866969139809        0.21939586617211       -1.28289587154913
H            0.71471934279969        3.48965914462357        0.53310542494065
H           -2.62091140430085        4.08834884140235        0.06007626960323
H           -0.96623128120193        4.26114608850942       -0.14799933408840
H           -3.74335397687671        2.13018386154934        0.01537902157197
H           -4.81003700229628       -0.49888523300275       -0.43959010047346
H           -3.68067125409287       -2.88758118286947       -0.65677529631546
H           -0.23428375989038       -1.86820705960928        1.59675645291421
H            1.45679247983320       -2.19915902482202        1.55586709650061
