31
 energy: -54.636968991700 gnorm: 0.000658306772 xtb: 6.6.1 (8d0f1dd)
N           -3.53373395529463       -2.83102393578868       -0.10885186910753
C           -2.92035749385862       -1.85827032676833       -0.06676327819574
C           -2.28412606877707       -0.59857699339724        0.00030597232591
C           -3.12553914623296        0.48423635449222        0.33340836448394
N           -4.40007841538099        0.19508724566745        0.69750190920085
C           -2.77811153011458        1.84283820454528        0.27532732173424
C           -1.56891244889169        2.38861331732214       -0.08745787949466
C           -0.32554618547534        1.78870301782320       -0.27067090529703
C            0.64675696941103        2.66173208070107       -0.77590653088943
N            1.41562465733716        3.40249616037843       -1.21339109300488
C            0.06819023539871        0.42069901577206       -0.07153995059773
C           -0.87925114172629       -0.67323645780200       -0.19881232762062
N           -0.48475476963965       -1.91630510815209       -0.48203277755259
C            0.79706414263015       -2.24021395440782       -0.49215682587987
C            1.76529953354984       -1.34609782699030       -0.11175773641837
C            3.17463286788671       -1.46715584460217        0.09173328559092
N            3.88219743032980       -2.61121875005192       -0.02845149031700
C            3.65269044613239       -0.22451581602010        0.49283731593765
C            2.60360565277225        0.70425342694003        0.52358262783533
N            2.74521455987493        1.94498357098229        1.03947462184382
C            1.39283534428187        0.03414551891541        0.11970476671266
H           -5.06668213327515        0.93617656169894        0.81812345086513
H           -4.73311580314672       -0.75243957915332        0.63580535707465
H           -3.58424006693618        2.53903504761450        0.46932113168446
H           -1.56956435325819        3.46414889835255       -0.23361176975509
H            1.01065216706462       -3.26481242793238       -0.77134186693445
H            4.88500168082756       -2.57893004451488        0.01581538461140
H            3.44921372544001       -3.41603762839597       -0.44366795990623
H            4.67092632152605       -0.00175457319088        0.75439895064055
H            2.06970566535898        2.66068779457095        0.82990504740622
H            3.68976729218559        2.26447542039124        1.18078409942329
