26
 energy: -43.260723793086 gnorm: 0.000436413822 xtb: 6.6.1 (8d0f1dd)
N            5.14798423607867       -0.60788515660487       -0.00323762625542
C            4.07681042146243       -0.18886109407941       -0.00224405591547
C            2.77459107143764        0.30523227856073       -0.00155755594399
C            2.37038175020412        1.64866719493873       -0.00089932771556
N            1.04751168117716        1.78151753090288       -0.00028721533933
C            0.51631718689081        0.52664735364446       -0.00055365113689
C            1.57571129175337       -0.44246723204589       -0.00140646813116
C            1.27535043562180       -1.80037590368226       -0.00190141165601
C           -0.04368928699601       -2.16627425456473       -0.00154411181425
C           -1.12363748173581       -1.24598986352016       -0.00060100564537
C           -2.39883633679723       -1.85880575208279       -0.00026987523778
C           -3.66518389436598       -1.34269455126737        0.00079610774883
C           -4.04242147525064        0.00476524257891        0.00180018492097
C           -3.23607890213171        1.10584240823880        0.00179738459616
C           -1.82332490460969        1.22448696984088        0.00087583542618
N           -1.34782132435369        2.46555387422650        0.00098504640983
C           -0.84469708108044        0.16410247033888       -0.00007533785378
H            3.00647542753271        2.51575938281710       -0.00073416661084
H            2.06298817627594       -2.53947996892846       -0.00256757238546
H           -0.28762357730779       -3.21877524199688       -0.00196765399401
H           -2.35514340128069       -2.94213009366232       -0.00091033169992
H           -4.47678793845158       -2.05847991031997        0.00090228022879
H           -5.10846211687877        0.19483973859997        0.00265007268113
H           -3.74693314712685        2.06321167407526        0.00263026331248
H           -0.30202433566177        2.57163307085770        0.00053477584759
H           -1.97987590250598        3.24858420103431        0.00175154806322
