31
 energy: -59.448875639317 gnorm: 0.000643678606 xtb: 6.6.1 (8d0f1dd)
N            2.29839319683246        3.29872431456377        1.49114797502891
C            1.58818556620814        2.54913725300718        0.98787417672779
C            0.59057278518045        1.68373818908192        0.49393812876221
C           -0.69912023723816        2.21155073894293        0.39684414703070
C           -1.70603699668077        1.37814928231654       -0.01896235700365
C           -3.08803461861332        1.58154975909213       -0.32784902787157
N           -3.75437474743897        2.73767867878810       -0.29766793580428
N           -3.68145496736669        0.43707867897011       -0.68739335563070
C           -2.76995035599737       -0.54450732191402       -0.59131294366832
N           -3.09699297407129       -1.75937281843839       -1.03725504039119
C           -1.48499385517749       -0.03946947311978       -0.15271711395376
C           -0.23752932316259       -0.59752107453627        0.10191130865003
C           -0.07532010947338       -1.98778618777816        0.44432924519716
C           -1.20175740591344       -2.66165848052083        0.93890424980033
N           -2.10475316644010       -3.24927611394570        1.34746796545082
C            1.09539604436425       -2.73312228783886        0.51988451378636
N            2.30111270780699       -2.48607694040854        0.07305753787102
C            2.76797994780210       -1.31609120928428       -0.34625411052039
N            3.95276301219587       -1.40885926061463       -0.97923810018961
C            2.21577863296098       -0.02064086670612       -0.11597300818502
C            3.09923966987897        1.02530696189266       -0.44669471409315
N            3.88333668523436        1.77629844370086       -0.83092326365625
C            0.87684741322453        0.32494709636528        0.19505870905187
H           -0.86198773253434        3.25611817203169        0.61871897526246
H           -4.73204832179892        2.73889500952634       -0.52970055441263
H           -3.30144483773792        3.58829677248926       -0.01752272398748
H           -2.57102804093415       -2.57529425207330       -0.76957765484876
H           -4.06937807279894       -1.88463048485003       -1.27167655868277
H            1.00026167557801       -3.72786941355468        0.94865360068771
H            4.37671094145108       -2.31861134648307       -1.03942912397675
H            4.47717618415867       -0.58741601530284       -1.22901291173147
