32
 energy: -58.372658030691 gnorm: 0.000778854629 xtb: 6.6.1 (8d0f1dd)
N            2.33052035866636       -4.17435828490954       -0.47348184269866
C            2.16412212717676       -3.04159878894600       -0.36410036340992
C            2.01375398020504       -1.64624708787634       -0.23105097189210
C            3.17405395246907       -0.94103207196221       -0.51530729358812
N            3.49082584170009        0.32276949799931       -0.34789623149675
C            2.68496128864913        1.28264256450598        0.08973513700628
N            3.35975106238300        2.41007377887756        0.41345381226539
C            1.26627856615675        1.30443426033334        0.17288939343693
C            0.75295882654013        2.51257186866079        0.64776426426731
N            0.38800008369146        3.52778292997682        1.06260877209875
C            0.32710499333261        0.24621907865567       -0.03324590924816
C            0.68804693675400       -1.15635950838312        0.04839640722921
C           -0.29202506556655       -2.10358227263374        0.29610127374460
C           -1.66287282379570       -1.81433292979857        0.35324623268677
N           -2.56410243169335       -2.80619257683667        0.62651318584337
C           -2.03267754128041       -0.50177824945956        0.09496699566650
C           -3.28741239985336        0.15023251867830       -0.04977452322560
N           -4.52426732693353       -0.37393495108373        0.15862062362878
N           -3.14011017760401        1.40554771172262       -0.48257812186731
C           -1.82098151679523        1.65258682096261       -0.56846782649140
N           -1.43744311409016        2.79964200046172       -1.15073285996918
C           -1.03962455395608        0.50985950416788       -0.16443971382938
H            4.01155283199280       -1.53226755003023       -0.87879379663454
H            2.89796848250499        3.21039504991570        0.80779225925314
H            4.36264946508721        2.37177376299823        0.36818545446763
H            0.00905076363423       -3.13522496016395        0.41151483389757
H           -2.20203903016490       -3.74705660330705        0.59987444197663
H           -3.49199989231277       -2.69822369865455        0.25056073195930
H           -5.26664187842836        0.30769582943914        0.10724945425332
H           -4.61806403736947       -1.05916235290359        0.89159360523068
H           -2.18929443175189        3.44742342458799       -1.32693211222630
H           -0.52646616524942        3.19027815420023       -0.97897657573061
