32
 energy: -58.365715479460 gnorm: 0.000835896898 xtb: 6.6.1 (8d0f1dd)
N           -4.51324342239886        2.54009341511770       -0.48810431013638
C           -3.75771181049186        1.68352001511441       -0.33853876884149
C           -2.85431832707161        0.62725049930882       -0.14684517794222
C           -3.39810547096263       -0.58053792565539        0.39692925870025
N           -4.56086699641673       -0.50953842513998        1.07526839198579
N           -2.92831172959326       -1.78747681392306        0.18864216728731
C           -1.72799032127160       -2.15018338571142       -0.21165953778886
C           -0.51738630986579       -1.46961590458753       -0.16075244777704
C            0.70351778402504       -2.24282461880267       -0.17070323296758
N            0.68387197164633       -3.61187447596300       -0.25647255558034
N            1.90636131142397       -1.72237421558108       -0.12095246636048
C            2.02342434090562       -0.40471703607716        0.00340977314834
C            3.18440459358682        0.35380248551281        0.11303421181896
C            4.50556245050121       -0.07686603456876        0.12888703838279
N            5.61977872046391       -0.36644059922625        0.16169930258657
C            2.78178377473776        1.72482173570090        0.28015242636454
N            3.66338200821760        2.75274279173581        0.40346980597367
C            1.40052198817068        1.81224936731766        0.21168582065358
C            0.87781685360094        0.50994492702269        0.03643184988232
C           -0.39573216829269       -0.02307289073823       -0.12489213483147
C           -1.50382993987277        0.85112993993738       -0.44813329874615
N           -1.18994924256080        2.01585590359808       -1.03857286613818
H           -5.07705140972481        0.35238474530173        1.11811536464089
H           -5.00995614582461       -1.36948710619053        1.33806979381119
H           -1.70889420025084       -3.19257320192437       -0.51275599111973
H           -0.07904794283761       -4.12578766097136        0.14779829429546
H            1.59827447484344       -4.01747954518210       -0.12568072618599
H            3.32666381753167        3.63463021562440        0.75017080935198
H            4.62087111002953        2.51808974438392        0.60761549116148
H            0.84665868981160        2.71756650377148        0.38695818098000
H           -1.91330719692198        2.66920374007221       -1.28962322949158
H           -0.23325253033830        2.19703306592099       -1.29529838791670
