30
 energy: -54.921113264313 gnorm: 0.000811076094 xtb: 6.6.1 (8d0f1dd)
N            5.44544174150461        0.75803666786150       -0.26034333584795
C            4.29543086721789        0.73982123044364       -0.22836685633155
C            2.89116747209707        0.70553803678199       -0.18628793264718
C            2.21925008341548        1.85365092818848       -0.64417948198444
N            0.99281650057681        2.21685676843638       -0.47724074479970
C           -0.08753960598191        1.53875854904073       -0.07542426787825
C           -1.18493316542421        2.31565738192571        0.26716370839500
C           -2.47821405844053        1.79588831817399        0.38102377821794
N           -3.51412431968982        2.58115982660144        0.74625761394280
C           -2.65108197869145        0.44962667322850        0.03110713197317
C           -3.78475866148470       -0.35197275251724       -0.14987289529078
N           -3.47003132024092       -1.57819767223159       -0.55807240361345
C           -2.12700197742254       -1.65383957140097       -0.61597095747135
N           -1.57997290095834       -2.74913676060399       -1.17653985568188
C           -1.51834431915273       -0.40512127533858       -0.22945422227692
C           -0.21530681824806        0.07471747415707       -0.09588700213213
C            0.88875033775972       -0.76417324693472        0.21881032714397
C            0.55941506407460       -2.04873912096227        0.67398908171328
N            0.33442817286661       -3.11897005391916        1.04081950303332
C            2.27780430901083       -0.47705905530392        0.28717459506334
N            3.09721413327353       -1.43825129729345        0.77174061725987
H            2.83478564957207        2.59972268260017       -1.14133864647497
H           -1.02399866917147        3.37770863624127        0.37431624434584
H           -3.37448714763752        3.57005823006386        0.85562616088752
H           -4.45347516368888        2.23252330277055        0.67829716308994
H           -4.81722484522550       -0.08617235446930       -0.00666093694460
H           -0.64278925291665       -3.03444567072446       -0.94435621749498
H           -2.24398752066254       -3.48740679204025       -1.35428235743518
H            2.73491556890495       -2.32712588689886        1.07116223181381
H            4.09077565576344       -1.28134530837719        0.78813041142622
