29
 energy: -49.613166582207 gnorm: 0.000641279462 xtb: 6.6.1 (8d0f1dd)
N            2.95786425164479       -2.37231381391183       -0.99870098435466
C            2.33201156401628       -1.27345977513108       -0.48418902537890
C            0.94675977406498       -1.37472041441791       -0.25299055315397
C            0.04408411272082       -0.35149795485311        0.00857197664578
C            0.42965627199279        1.07897639273620       -0.06704186071835
N            1.63856108417875        1.52355756619431        0.23109445007838
C            2.76674887526738        0.86549446985346        0.37354828214447
N            3.73286195802822        1.52572792208639        1.06159384326890
N            3.15989243023396       -0.29742285306493       -0.14932354182528
N           -0.45007627962292        2.01919468749266       -0.36390015943048
C           -1.75968143629111        1.74916187050478       -0.41176565538200
N           -2.55046562223227        2.77583843050668       -0.80742345048160
C           -2.26609571977667        0.49634842741028       -0.06038049197414
C           -3.56190934943919       -0.03177112467711        0.07701644873777
C           -3.45328808936921       -1.37338462799423        0.40543361729084
C           -2.09683786303215       -1.72909108615787        0.46184910408082
N           -1.61382514643566       -2.98727207982901        0.75417085368274
C           -1.33058675266770       -0.57495981452855        0.16449366453446
H            3.91809030663881       -2.25109272848507       -1.27127686209894
H            2.41596573251184       -3.06947188132679       -1.47723282112666
H            0.52081577833546       -2.35377363438485       -0.43669181698090
H            4.67573244464541        1.18758100755011        0.98660396580221
H            3.57039939780965        2.49617403680811        1.26470860461192
H           -2.11422856120105        3.67777565566160       -0.89128051516556
H           -3.54094912430893        2.72419771036231       -0.65235106356212
H           -4.48459896145192        0.50762775780821       -0.04544178588137
H           -4.27144575766849       -2.04561544775177        0.59485713625166
H           -0.70357950762611       -3.00903386310727        1.19034528794800
H           -2.28647561766907       -3.59794964165502        1.19504863423899
