30
 energy: -54.928720375112 gnorm: 0.000973368139 xtb: 6.6.1 (8d0f1dd)
N           -4.92889375912378        1.66685156000019        0.31552088052303
C           -3.86795370535450        1.23025408325810        0.20272180868435
C           -2.57009925025417        0.71934988235050        0.06330833851336
C           -1.53769278835334        1.68385570265043       -0.15165346200318
N           -1.92640772416793        2.95932126694482       -0.37475218895154
N           -0.23723458934041        1.53390015424069       -0.12653691084379
C            0.52727609231644        0.45009229687348       -0.04075482763288
C            0.13282602483374       -0.95181842847543       -0.11951274179646
C            1.14088623621473       -1.93093392350837       -0.19854946617149
C            2.49160666451076       -1.65664353114813       -0.12320791592926
C            2.88527228569480       -0.34167727794213        0.04126852602812
C            4.13079344690516        0.33980690957175        0.16332646436457
N            5.36191184706456       -0.18895669520727        0.17656573272899
N            3.94839261077509        1.67946892824551        0.26619122578906
C            2.64242390154834        1.89592003760811        0.21153050872541
C            1.90160535817203        0.69504164039715        0.07540828242376
C           -1.21368301833268       -1.40654890953889       -0.07231393052027
C           -1.40565355163990       -2.80231467309996       -0.12837752701129
N           -1.63388018030126       -3.92981678336363       -0.18309493241037
C           -2.42388147990845       -0.68204806713560        0.09219874002627
N           -3.55659333883784       -1.40178959934133        0.27028690914019
H           -2.89430092384066        3.22756807156162       -0.34931961443679
H           -1.20791419413838        3.65449716193189       -0.47106891692702
H            0.83394287354270       -2.96130006737255       -0.30294748491791
H            3.20803761777175       -2.46385363862310       -0.18130236925352
H            6.14797096065443        0.42849405872780        0.27704259634310
H            5.50115628198027       -1.18096277650389        0.12035699536756
H            2.25040803814719        2.89347408991984        0.27398612506270
H           -4.44205434008838       -0.93175312782726        0.34988353498947
H           -3.53171070655043       -2.40681645269385        0.25767234689518
