28
 energy: -50.681285553696 gnorm: 0.000903259090 xtb: 6.6.1 (8d0f1dd)
N            5.04127731166824       -1.10072378090966        0.22899349403965
C            4.01263742164916       -0.58974160048735        0.14560731288072
C            2.81167310140529        0.10406982356089        0.05259278892544
C            2.71054749679442        1.52768220457908       -0.02532215452416
N            3.77583752824807        2.35750317456282       -0.05729917682012
C            1.36193380644847        1.89763976402957       -0.10279350847357
C            0.58741008831250        0.73866861327532       -0.07791445909313
C            1.50803098257144       -0.40261752458099        0.03354079865859
N            1.10527418398826       -1.65770546219892        0.11368918742167
C           -0.19230719053710       -1.91192463185179        0.04889508063523
N           -0.50745976882286       -3.24481029562814        0.11193033211405
C           -1.20644511222366       -0.91745820218497       -0.10208719830771
C           -2.51425960936227       -1.31600992324255       -0.38724538480473
N           -3.65337900925751       -0.67169180896122       -0.28051651327176
C           -3.79197271022973        0.61793469764763        0.01581441837598
N           -4.98193593463986        0.96850405297047        0.53099229946976
N           -2.97185167872274        1.63803650308363       -0.25890706645589
C           -1.67416172085769        1.55081551298161       -0.37995683930806
C           -0.78692829356324        0.48644360557184       -0.13274420433453
H            3.64335197475324        3.35075947725810       -0.00034297726289
H            4.69412288648334        1.97933559502718        0.09717454820920
H            1.01153457732968        2.91171936674004       -0.15782648742282
H           -1.38717421440521       -3.52781403954955        0.50577145292100
H            0.28468112905015       -3.82798686850923        0.33280301108764
H           -2.65808100021462       -2.34802005021127       -0.69630350057358
H           -5.19419053666543        1.94298030468061        0.65046068331492
H           -5.69541402561972        0.26943819691465        0.63760556537518
H           -1.21397679648120        2.49458400163198       -0.65538365637555
