29
 energy: -50.402948020084 gnorm: 0.000643705300 xtb: 6.6.1 (8d0f1dd)
N           -4.68208167923528       -2.54924962785578       -0.47090190704140
C           -3.72550677708330       -1.91820782506204       -0.36105706381858
C           -2.59416042477175       -1.11234637276201       -0.23840258161396
C           -1.25952122106669       -1.53407608648685       -0.23502677099376
C           -0.44147735660524       -0.40206986709469       -0.13177223493177
C           -1.30859214668859        0.75153040387052       -0.04021389341152
C           -0.71219901632527        1.99357852452262        0.22018965596567
N           -1.43074201325857        3.09821148374443        0.54216146980905
N            0.59983365390657        2.16541716448574        0.09824930262539
C            1.41931433033983        1.15533760585777       -0.16054893386172
N            2.62580460927239        1.53157293387824       -0.55156310086869
C            3.73957496066204        0.85388695829702       -0.64362947815122
C            4.07851915872868       -0.40119493412759       -0.16976238991660
C            3.18471657974516       -1.40650012733701        0.23475089605737
N            3.72021708082729       -2.58093267025226        0.66683125818140
C            1.78840164521853       -1.33308511676882        0.16151791857426
C            0.95563204146682       -0.24515683813063       -0.07376649515970
C           -2.63472152236550        0.30489160861378       -0.12046951945754
N           -3.77957266616886        1.06383942180700       -0.05145160856304
H           -0.94383434910587       -2.55665388719845       -0.33033018201078
H           -2.34581832831768        2.97719372958893        0.94199083651649
H           -0.88967785638718        3.89679849786229        0.83254943819181
H            4.53866379994108        1.42645957279960       -1.10937836485834
H            5.12894692637365       -0.66302443664433       -0.17429564368669
H            4.71091617012520       -2.73176129612872        0.60517241818705
H            3.12915659651959       -3.38076444885466        0.80687889321607
H            1.27283630154084       -2.26428730779569        0.36849590301941
H           -3.72089899950525        1.98621219470711       -0.45643365328378
H           -4.62447403228240        0.56569481916459       -0.29394736611486
