29
 energy: -50.413269177984 gnorm: 0.000819327760 xtb: 6.6.1 (8d0f1dd)
N           -3.18714114030198        3.45170414024807        0.16520438791620
C           -2.66831704492195        2.42520568178453        0.12875395490585
C           -2.07210767283319        1.15303938493263        0.08135590886870
C           -0.69183757590165        1.07732385641778        0.26380166764492
C            0.18059677857429        0.00370507582940        0.11502732745341
C           -0.19660188715909       -1.38647203551544       -0.02538640186116
C            0.76830161228158       -2.34465829469398       -0.31963620857738
C            2.12020758288820       -2.04763253765020       -0.46615628861993
C            2.54561444925088       -0.76138892477691       -0.22894762569129
N            3.79956545469502       -0.26947294671417       -0.24911574868711
C            3.67668850652737        1.02916108405053        0.03610974175758
N            4.76019336575849        1.84909562303011        0.05163397689481
C            2.32928629436608        1.43065998770147        0.25146575346037
C            1.57341590298888        0.28596554606443        0.09301524216642
C           -1.54008870749272       -1.82566761307680        0.26536223633994
N           -1.69659057122180       -3.06329381847865        0.77617727865298
N           -2.67702129691816       -1.21241107119893        0.02843261369414
C           -2.92983707111988        0.05774563643729       -0.21922290045774
N           -4.16132321259964        0.31323749355515       -0.70788217325199
H           -0.21490929192783        2.03221913972270        0.44813063627828
H            0.45486401963940       -3.36635615749300       -0.48718321049271
H            2.82572007664107       -2.81860931985153       -0.73363186582145
H            4.68436906098929        2.72934879305012        0.53129003255187
H            5.65672975016426        1.39273419961059        0.06304974604576
H            2.01722509331909        2.42945291523940        0.49056162855696
H           -2.62857840200769       -3.38254121491564        0.97481469656371
H           -0.90484896578138       -3.61812787643976        1.04505897328496
H           -4.79732216311869       -0.45294390457265       -0.83929878582453
H           -4.48535424707857        1.26034180750452       -0.80075346204839
