23
 energy: -40.053949639097 gnorm: 0.000588371635 xtb: 6.6.1 (8d0f1dd)
N           -3.55661433298190        2.38220225296141        0.00240057368475
C           -2.86329250452562        1.46748823680217       -0.00064487113765
C           -2.07180316061027        0.29048536105863        0.00080924640837
C           -2.84316538185996       -0.87364686515061       -0.00067684311280
C           -2.41996754031518       -2.18816231365409       -0.00090418185239
C           -1.09328403433365       -2.63749130611969        0.00024001344456
N            0.03536525319035       -1.99108549212134        0.00086974451226
C            0.28617323663901       -0.67862714265015        0.00115156464755
C           -0.65801035095283        0.45043786526332        0.00174552012892
C           -0.15363222992023        1.75829990159983        0.00281395098017
C            1.19718914020832        2.06212269592208        0.00310552774643
C            2.11161104204801        1.02519234055763        0.00220052413054
C            3.51483574185724        0.92123105526515        0.00220593552983
N            3.90983134382726       -0.35721396750255        0.00128396613559
C            2.81893549459206       -1.12096757607872        0.00071916551748
C            1.63977994709711       -0.34084852441374        0.00122967468951
H           -3.91548795765141       -0.71037120893889       -0.00160278384381
H           -3.18629278736468       -2.95096919060794       -0.00195478215292
H           -0.95486583137533       -3.71650977494425        0.00045166159648
H           -0.86335122471273        2.57331813816068        0.00343652759549
H            1.51925342466366        3.09317976935074        0.00398635387753
H            4.23561481496299        1.71799925936684        0.00284316624485
H            2.88989908721775       -2.19177209542649       -0.00005030417073
