27
 energy: -42.144708627187 gnorm: 0.000583773549 xtb: 6.6.1 (8d0f1dd)
N           -4.21481101672384       -1.32652170658510        0.16126555499986
C           -2.93248949801524       -0.85861213276471        0.07526195659452
C           -1.91319224765394       -1.82934605691042       -0.01113752442519
C           -0.56838404441831       -1.63690762037423       -0.12458990895200
C            0.22868741615191       -0.46998389311899       -0.06258956735831
C           -0.24259000396969        0.89100063268872        0.03866000517743
C            0.72634913511910        1.89529675439649        0.26739314450712
N            2.03026255822790        1.73530251142035        0.31104885865402
C            2.50096277518601        0.51706849107867        0.10785757440822
C            3.82486290253874        0.06733496726247        0.06596349650284
C            3.78742826706961       -1.30860449401515       -0.11976180204013
C            2.46274308030782       -1.75293877030151       -0.19465710014073
C            1.62226965533120       -0.64614239723538       -0.06938338884896
C           -1.60464488182451        1.29440978563411       -0.12463701769939
N           -1.84120408783335        2.62574775522468       -0.31824526943703
C           -2.75772339936656        0.51289660010558       -0.04070846669059
H           -4.36172964460173       -2.29236704214049        0.39527467386097
H           -4.95689506568973       -0.68645741321722        0.38274143782021
H           -2.25807401356754       -2.85674934485150       -0.00113242514807
H            0.01530734362480       -2.54410246708963       -0.21069178004961
H            0.41501290269389        2.90975493232111        0.48436788762815
H            4.70009785926277        0.68052172698389        0.16264152737060
H            4.65050263271818       -1.94796969913703       -0.19655683020735
H            2.17313371425568       -2.77983038655484       -0.33390043907619
H           -1.09336137864258        3.22091693645808       -0.62450760676961
H           -2.77641168101522        2.91799914742148       -0.54239970389040
H           -3.68330115396533        1.08069155220056       -0.07707418119041
