23
 energy: -39.265289299548 gnorm: 0.000939286874 xtb: 6.6.1 (8d0f1dd)
N            4.27567988847314        1.12485130482387       -0.22316334414914
C            3.04304152023365        0.57515009353141       -0.13173598467809
C            1.81793986811941        1.27831387118659       -0.01655572939524
C            0.83142663801531        0.30304673861422       -0.01160204494544
C            1.55712538434635       -0.96503359521307       -0.13506339350720
C            0.86909586536012       -2.16277840810289       -0.14576724396771
C           -0.51253728562255       -2.14424505077039       -0.01966271340020
C           -1.26188410259436       -0.96877302912679        0.03066363189451
C           -2.65169510354809       -1.07154913447061        0.27690249768104
N           -3.60963522286833       -0.22054216652102        0.04071053507642
C           -3.45198632889917        1.04312905446421       -0.32016031001208
N           -2.48570610542902        1.86407570968812       -0.01888939361021
C           -1.24045180017414        1.53601062101666        0.27018545497005
C           -0.57371157503762        0.32889040719044        0.04117145088858
N            2.87981129624742       -0.75657800694867       -0.19103309741372
H            5.05955471475209        0.49970759117493       -0.15065486414156
H            4.40654638032816        2.08442078962210        0.04295045611833
H            1.71265767600139        2.34474706091257        0.02893040620801
H            1.40486440933241       -3.09544158114892       -0.22714314261321
H           -1.04641379921985       -3.08322365369925        0.02276226846317
H           -3.00936726693421       -2.03605930263791        0.63140558552497
H           -4.31194585682627        1.48916252175411       -0.81016605323396
H           -0.64149357215587        2.37603259486026        0.60781409784259
