33
 energy: -58.084688318038 gnorm: 0.000798366085 xtb: 6.6.1 (8d0f1dd)
N           -1.23416142777293        4.20218947846175       -0.50106762567912
C           -0.79146404615935        3.14363681598596       -0.39271378224775
C           -0.18250148340556        1.88964066803803       -0.24912336129917
C            1.23158879857993        1.86390871579047       -0.20868902182487
N            1.94319732856755        3.02103339765423       -0.38846189835122
C            1.84410992613467        0.64235393732156        0.03357655104517
C            3.20618533492646        0.27823617497722        0.16289168563364
N            4.28815036173155        1.10329522160092       -0.01101274058392
C            3.26629100094808       -1.06808604072114        0.53750131280838
C            1.98095715974116       -1.59965423842292        0.57821431841509
N            1.69002936665027       -2.82154627574118        1.08424448625594
C            1.05166976554121       -0.55921020411237        0.20124174691291
C           -0.31384096100324       -0.55960429197958       -0.02777910818264
C           -1.02990401354161       -1.76722586673826       -0.35608245277098
C           -0.28980103423569       -2.80686475610855       -0.94323263541772
N            0.27067751658192       -3.67160546647230       -1.45871780237302
C           -2.39349326939002       -2.03350130433897       -0.29262289756509
N           -3.40738377932336       -1.32227871310648        0.13839132043731
C           -3.37311319937676       -0.00706005810365        0.36328506358200
N           -4.54066041208129        0.47621454034196        0.85704679364392
C           -2.35321383084415        0.91603427758624        0.09503301559692
C           -0.98114777049837        0.72911389897257       -0.09238710636627
H            2.82871552500101        3.08319112952344        0.08654338391858
H            1.39976039197666        3.87230556191657       -0.39217743787926
H            4.19143264394165        1.81338486862654       -0.72121572086479
H            5.17797352992687        0.62727999872211       -0.03376201126342
H            4.16753189982683       -1.61103729372784        0.75610044455204
H            2.45701339659328       -3.46605516103324        1.17848082306665
H            0.79235473718881       -3.23569658268112        0.90195941563817
H           -2.69061294632559       -3.03069694405608       -0.61176491942903
H           -4.70908444899476        1.46452890061917        0.90380800075981
H           -5.31464814638841       -0.16107305491122        0.92277680008265
H           -2.66622268981592        1.95294339981593        0.14952123294812
