25
 energy: -42.706261533492 gnorm: 0.000961733293 xtb: 6.6.1 (8d0f1dd)
N           -3.39770691441895       -1.94800217967179        0.87024739789064
C           -2.71176653256170       -0.94352769950219        0.26969429921673
C           -3.44641709562701        0.11551280666797       -0.33490377687093
C           -2.86866779114834        1.31128880748691       -0.68287015997822
N           -1.71347442718708        1.81764328388870       -0.28973898853419
C           -0.63683638393609        1.22518792976972        0.15856893231322
N            0.34339466868641        2.00159206804313        0.62760194517520
C            1.58333904410991        1.55433976829914        0.60647147425293
C            1.92731217404579        0.32865964422688        0.06194430370359
C            3.15932084275420       -0.34752885178523       -0.12972486466483
N            4.39677421968500        0.15965232775956        0.10747878617088
C            2.86845538447558       -1.66511534827623       -0.53711216103361
C            1.49821385577002       -1.83667702854149       -0.59155604802918
C            0.87559003414986       -0.62020012428533       -0.23786171652976
C           -0.44254347266026       -0.24567618736180       -0.00901031935990
N           -1.41402896959168       -1.11990968992619        0.19082582227969
H           -4.39675936698970       -1.99870662000685        0.79160739551048
H           -2.88627653794977       -2.76343808785942        1.15712911165806
H           -4.49579510276768       -0.04699834949630       -0.54056107551589
H           -3.45567880924723        2.01265009122666       -1.26960521957620
H            2.32326265128404        2.23143265901912        1.02025719146143
H            5.19520044526473       -0.35211652297894       -0.22632950027856
H            4.49766714230411        1.15458426477429        0.20388982704554
H            3.60874491711162       -2.41139219067280       -0.76371126097958
H            0.98171713234378       -2.73818274419760       -0.86388570532783
