28
 energy: -51.472394388325 gnorm: 0.000548863912 xtb: 6.6.1 (8d0f1dd)
N           -4.88152492354351        1.20777430577468        0.62882340325703
C           -3.85002609941328        0.73386380545770        0.44276077340763
C           -2.60483284607969        0.14823901885074        0.21417731068426
C           -2.39520855517785       -1.19927047295748       -0.13881086016176
N           -3.35076062335042       -2.12170031957191       -0.33164846127647
C           -0.99109139130670       -1.39893678220392       -0.23398758295778
C           -0.22752286896473       -2.49876528204561       -0.54528089835928
N            1.08902906404828       -2.48659682948207       -0.42627137478517
C            1.73563079037614       -1.36515127816388       -0.10810419304821
C            3.07371878329095       -1.57686201240464        0.30065337001225
C            4.01140631502502       -0.66519929416230        0.73363602482941
N            4.08934112976315        0.63925923171136        0.52636933084400
C            3.16586588083352        1.37510773481356       -0.04515974653023
C            1.80689806662479        1.14379326070424       -0.25290751181340
C            1.12740334848066        2.22630618740350       -0.83062702342199
N            0.59473391585976        3.12291354207031       -1.32079523050915
C            1.06274136356400       -0.07455567800420       -0.06304836158789
C           -0.32486066091211       -0.12938354260564        0.01865514921925
C           -1.35817991878941        0.81907887133252        0.31527311596735
N           -1.25825815722500        2.07331919938970        0.78330977243778
H           -4.31883440250844       -1.87179500196962       -0.22713134094743
H           -3.10862789356947       -3.06586553264121       -0.57035498781319
H           -0.65700032760044       -3.44412858021532       -0.85383503973609
H            3.32473020936772       -2.62580399494138        0.38726035109101
H            4.88428850426973       -1.05893720936313        1.24668301132528
H            3.52417714553670        2.36156453882810       -0.33190848179273
H           -2.11525512213312        2.59506129822337        0.88412149256001
H           -0.41402753086661        2.60803671897365        0.66338752690515
