33
 energy: -52.462992430074 gnorm: 0.000590000295 xtb: 6.6.1 (8d0f1dd)
N            4.37481490345095        1.77257796912795       -0.17016102683983
C            3.13492630074854        1.19397058816140       -0.02667324371077
C            3.10244949249246       -0.10645959821733        0.48333270102498
C            2.06655023703421       -1.02177613621254        0.48536600000810
N            2.32610574105830       -2.19896305180576        1.11879451798521
C            0.72453761990055       -0.85876163747486       -0.01749966523341
C           -0.01077838917481       -2.00603062939991       -0.38626188257711
N            0.65194823708905       -3.24189040419010       -0.62962445089623
C           -1.39328461488349       -1.99076329571433       -0.51265486484605
C           -2.08990049703155       -0.85380564444067       -0.16374704284784
N           -3.42101729701614       -0.68147160904661       -0.08656812443142
C           -3.59025000710664        0.59725162012283        0.27322557586854
N           -4.85278124112554        1.12390195837123        0.42456697321136
C           -2.38083036915471        1.30777293526526        0.39258031094679
C           -1.36856713793392        0.37842825386171        0.12161842523927
C            0.03916119476997        0.41984996122670        0.00187112589124
C            0.67287604257688        1.66153140658264       -0.28940975044052
N           -0.14647516258352        2.72503033624574       -0.54947737508645
C            2.03566040335082        1.93990473338175       -0.41874136526493
H            4.41445700074885        2.77247304025834       -0.27339092718629
H            5.14286428177794        1.35714804623271        0.32900227347488
H            4.04131202765208       -0.46916949420105        0.88898862030977
H            1.67410616197983       -2.95929420647761        0.99913300231081
H            3.27376460723428       -2.41648571778805        1.37213596665011
H            1.46564528425485       -3.13829897906107       -1.22421257583769
H            0.01098708740819       -3.91390824414315       -1.03253457927277
H           -1.92257350328989       -2.87868293366464       -0.82763324222689
H           -4.92708655471942        1.89832299872312        1.06601415842976
H           -5.56705214867728        0.42047762221420        0.53616487434806
H           -2.30460612461653        2.30951215356487        0.77415546131136
H            0.26623540773244        3.51895123918289       -1.01107230419199
H           -1.10564203902232        2.50954275563905       -0.78528569978507
H            2.26491446617540        2.93487335017401       -0.78753086823499
