27
 energy: -46.167587296164 gnorm: 0.000324034644 xtb: 6.6.1 (8d0f1dd)
N           -4.40670416675670       -0.73018363112897        0.21582822847792
C           -3.15862875696635       -0.23478056222280        0.03008384618121
C           -2.10081362024156       -1.14639021920801       -0.03625085206630
C           -0.72480110338002       -0.89893705829587       -0.09255344614587
N            0.03700489531102       -1.99336790401710       -0.10087995595814
C            1.37041799660882       -1.92774089483556       -0.06610540470470
N            2.01817905549927       -3.11670699689288       -0.15220270775142
C            2.04153026644057       -0.70457517657337        0.01485548702426
C            3.38381515241644       -0.29556729039356        0.04172264883140
C            3.43634901885595        1.09547941482612        0.05593687155682
C            2.13220218948268        1.60284987879412        0.04066880710423
N            1.69696677288045        2.87649228182747        0.07775092384025
C            1.23524436929590        0.48574765801231        0.01449934585125
C           -0.14328036287038        0.45072739839918       -0.07247991833871
N           -0.78961031974084        1.63543621603646       -0.16176831134279
C           -2.07612347022584        1.84568401720119       -0.21943855712671
N           -3.15051367022809        1.09884294978539       -0.08843430591901
H           -5.17402147070568       -0.08265571070341        0.20124029412807
H           -4.57854406371248       -1.71802586918057        0.23523333932382
H           -2.36174180986569       -2.19599229105435        0.01371333525962
H            2.99511577254673       -3.16370107071940        0.07206985950102
H            1.45993691292109       -3.94910588220415       -0.07791913371908
H            4.24260977795679       -0.94416855893919        0.04028755905050
H            4.33359121588410        1.68714802380779        0.07502205983107
H            0.69810525702244        2.97684152022690       -0.07105836082412
H            2.32747290772134        3.63742066448851       -0.10535603944596
H           -2.32450065624995        2.89800508656390       -0.37224848251849
