30
 energy: -55.717444570978 gnorm: 0.000783500373 xtb: 6.6.1 (8d0f1dd)
N           -5.28142209732027       -0.28732192124762       -0.57001694810859
C           -4.16352242366983       -0.06861364383761       -0.41235395029452
C           -2.80933410122110        0.20873515575371       -0.22137860924017
C           -2.27483887301965        1.47613447391809        0.08413801183830
N           -2.97955988909341        2.60172955842584        0.27142979998213
C           -0.85838707873088        1.34137112140843        0.13624365101156
C            0.12659766653628        2.26819888022612        0.35792927852963
C            1.46284357449494        1.86913587811106        0.24895610116867
C            2.45155141109338        2.86045854190484        0.40134469852893
N            3.22637254039835        3.69791230634566        0.53503909545610
C            1.83262893037967        0.52824601840880       -0.02006771005381
C            3.16405242729477        0.28777579864908       -0.42396553653439
C            3.75793235506270       -0.89086074541056       -0.83518565116767
N            3.42892885981634       -2.14420541772643       -0.58373362638329
C            2.34322435949617       -2.52409525038355        0.05073617157192
C            1.13883262529906       -1.86244368504338        0.26596511530414
C            0.18449459840954       -2.62369285399545        0.96182995414896
N           -0.56834514637413       -3.26458931964265        1.55188122445829
C            0.79748009616189       -0.48411229163629       -0.00098016015108
C           -0.52319738069657       -0.05801566008821       -0.07117705755373
C           -1.76044901076524       -0.73898314681078       -0.32788322558111
N           -1.96611751986099       -1.98697982371048       -0.77031886056998
H           -2.51694587029787        3.46710897717603        0.48212257652699
H           -3.98276825703136        2.58144921182295        0.21120201497429
H           -0.09555093378531        3.30477529944100        0.56874068810879
H            3.76253197621140        1.18160408478406       -0.55543259574180
H            4.69619251333517       -0.80192355057808       -1.37474317934946
H            2.38604465104084       -3.55501671080943        0.39445304537574
H           -2.91848719735405       -2.30428269660626       -0.85843476151616
H           -1.24773787020329       -2.68854568935393       -0.72403581123462
