30
 energy: -50.120015564758 gnorm: 0.000755440573 xtb: 6.6.1 (8d0f1dd)
N            3.13033835699149        2.72892142209803       -0.47104595197332
C            2.69160554244136        1.67349966200058       -0.30534042773841
C            2.25869896236878        0.36786304051898       -0.12464201230713
C            3.18266584492423       -0.72890345923511       -0.03693369231585
N            4.54030094505652       -0.57235401957575       -0.03583892148585
C            2.47288377468440       -1.90679082253277        0.10979540313086
C            1.10228047449950       -1.59082500622252        0.12156130925613
C           -0.01790833056229       -2.37732701310520        0.28501939279107
C           -1.29237010983240       -1.81377031476805        0.21135530775759
N           -2.40571736294775       -2.67462630288457        0.28169944977568
C           -1.46650384959580       -0.43571218871357        0.02537971660003
C           -2.76977977226844        0.08862193381595       -0.31830164147349
N           -3.56416102972383       -0.66033685146762       -1.10730205808633
N           -3.31802951348364        1.20348370163830        0.11068859420370
C           -2.75234744529833        2.31049603087773        0.52340976956013
C           -1.43182459738028        2.69688840446051        0.33084614671030
C           -0.37842551780976        1.85318166418598        0.02590824123027
C           -0.31736575673205        0.45036339610902        0.00110161377964
C            0.95614689828275       -0.15602653829616       -0.03471551719984
H            5.09972882784842       -1.38220303985995       -0.24391865103403
H            4.89652599549212        0.31014780689580       -0.36581480049833
H            2.89354316063156       -2.89013169492089        0.20600392043639
H            0.08026210536010       -3.44386090335043        0.43750954213230
H           -2.14796393341482       -3.59540059117094        0.61178059613710
H           -3.17815377453187       -2.30218323584518        0.81873162820755
H           -4.48857401827717       -0.32248949680297       -1.31403489474276
H           -3.29346144616098       -1.59859936531478       -1.35128793230108
H           -3.44701406306963        3.01675190570248        0.96636131348063
H           -1.19872253969161        3.74246462367200        0.47724179479465
H            0.58185387339230        2.34091743068729       -0.08146790943575
