33
 energy: -58.110261184672 gnorm: 0.000858029737 xtb: 6.6.1 (8d0f1dd)
N           -5.51204759231506       -1.24256611136859       -0.29500037132212
C           -4.45403016044450       -0.80184988494898       -0.18045491599280
C           -3.16615448077306       -0.25335597468499       -0.04271696246351
C           -3.12714806382116        1.11390941232294        0.34870842539896
N           -4.28610400449117        1.65186637092661        0.80802754120932
C           -2.03643863082098        1.95371144844582        0.20989600873487
C           -0.71550207349244        1.68993085854326       -0.16539960856403
N            0.04887708041793        2.74318853710999       -0.46350938919452
C           -0.05177539673475        0.40452410817132       -0.13883163714464
C           -0.69507685020926       -0.86985066704233       -0.06410787479328
C            0.08339828431064       -2.02125715922452        0.19202994358829
C            1.45133033285164       -2.00547745358939        0.31014460024549
C            2.11270708560004       -0.80381792205320        0.10400282209025
C            3.46704023357149       -0.41171461074122        0.08769137578733
C            4.60313131143057       -1.18508734156105        0.27385814797636
N            5.56686506470913       -1.79581408041196        0.43667927453505
C            3.44298087780060        0.98530710094672       -0.14843141817647
N            4.52992721447835        1.78353683501371       -0.31693479377266
N            2.19580245999641        1.45746551639774       -0.26734732940427
C            1.35403364847093        0.39742485501646       -0.12384037732099
C           -2.09109362997135       -1.10853146951862       -0.32160316935949
N           -2.41117334113618       -2.32292589236204       -0.82560002443858
H           -4.35537472314887        2.64311941020640        0.95042257784173
H           -5.13337282114335        1.11082108901972        0.79129724864362
H           -2.25054038095053        3.00330955510458        0.38541117021450
H            1.07546641336132        2.56323918421411       -0.50870191033521
H           -0.32405829945265        3.67146039554420       -0.35405205149366
H           -0.42379262566187       -2.95794750166477        0.37373789365943
H            1.99997039052865       -2.90569185915433        0.54434073829316
H            5.41697537516811        1.42142005292584       -0.01054288364176
H            4.38951113575464        2.77681254665498       -0.25211125265287
H           -3.37480667877572       -2.56454211474828       -0.98386754184833
H           -1.69252408750713       -2.95431139949050       -1.12734339189893
