31
 energy: -61.024675683503 gnorm: 0.000535975944 xtb: 6.6.1 (8d0f1dd)
N            4.70208705536438        3.46158582554490       -0.18167237425154
C            3.84826662940099        2.69877252517731       -0.12479627420383
C            2.78716924337437        1.76442535856970       -0.06068076585747
C            3.07082997820332        0.45719988110681       -0.48280534414319
C            2.28333826539769       -0.66798445635918       -0.36330357437126
C            2.88425525152558       -1.82534122756824       -0.92887993279274
N            3.39546380456082       -2.68166525762914       -1.49447924618364
C            0.93312088631826       -0.82976967633821        0.09919126286261
C            0.49436072231861       -2.12213145536056        0.43181016934488
C            1.41614828141496       -3.13964843475860        0.77227152079642
N            2.09192911191668       -3.98098495951455        1.16003412370113
C           -0.86883499817869       -2.44557424079262        0.52970700181308
C           -1.79262727699971       -1.48562553658761        0.20907866340025
C           -3.20117299676395       -1.55644513044953        0.09487905851849
C           -3.66368861082304       -0.30898713890844       -0.27682084141258
C           -4.98639437937315        0.05999469301507       -0.55431651993185
N           -6.05601080146948        0.40124208213312       -0.79382810472456
C           -2.55843076571636        0.60681501323006       -0.37855630066875
N           -2.70951692262450        1.83864407338228       -0.87391960862729
C           -1.37726145159523       -0.11432274997993       -0.03776955885390
C           -0.03321331717547        0.25048144824782        0.10551839450827
C            0.33592918651878        1.59453819245720        0.43498843343279
C           -0.68465280778021        2.38223945947468        1.01259328055057
N           -1.49222419876888        3.04153032826739        1.49500786462295
C            1.56727984256455        2.23674888087969        0.41341643464259
H            4.05646213944504        0.30117972229997       -0.90700076993842
H           -1.16090864455275       -3.44983961588762        0.79667947292028
H           -3.79942658434199       -2.43376396954933        0.25265717190130
H           -1.95871587013361        2.50542969371600       -0.90508249105646
H           -3.64476047507449        2.17534196283217       -1.04272852725576
H            1.56305361054715        3.26098259925009        0.77150566305744
