26
 energy: -46.462751046512 gnorm: 0.000852480080 xtb: 6.6.1 (8d0f1dd)
N           -4.32094305292102        1.53084285015418       -0.00845059177430
C           -3.25555686783896        0.68642758862233        0.03441109373126
C           -3.31518729750758       -0.72693451944207        0.02355076625227
C           -1.99999796385762       -1.14821508392875        0.01325128863894
N           -1.45674360909410       -2.37703797686231        0.00453559964481
C           -0.15718401759010       -2.43458584378632       -0.00504739054137
C            0.74601157506118       -1.33188910068778       -0.00685742939806
C            2.11171891607341       -1.64030765128238       -0.02300619912910
N            3.19011278691843       -0.89745626954229       -0.01777846288756
C            3.22601290278514        0.44121204948618       -0.00224315874549
N            4.48106651962257        0.92838656898584        0.02190366662020
N            2.28790164111459        1.37892339861912       -0.01050691604394
C            0.97262098876074        1.22132502599889       -0.01015965910389
N            0.27071327324047        2.34658992597060       -0.02058457727502
C            0.18884182224251       -0.00391093111654        0.00346558135482
C           -1.19245834987699        0.06806098870658        0.01511032782058
N           -2.00069893688433        1.16076731693439        0.03090655979724
H           -4.14377734321833        2.49568558283335        0.21493129502205
H           -5.21599420152251        1.16034249613311        0.26066670376238
H           -4.20371319655616       -1.32480297192145        0.02274886459594
H            0.26245766672255       -3.43402046636189       -0.01153900105487
H            2.35018046746722       -2.70236437462759       -0.04016635871473
H            5.25055612952056        0.28368734673102        0.01261014704974
H            4.62748396891464        1.92123172323306        0.01767451240545
H           -0.76464513833697        2.25525112797418       -0.01372227700724
H            0.76786825586064        3.22109813777652       -0.03408336612005
