32
 energy: -58.379316289002 gnorm: 0.000784720334 xtb: 6.6.1 (8d0f1dd)
N            5.26193848922239        2.69384052641185       -0.63695885930066
C            4.33387256983353        2.03528518053020       -0.46703966476526
C            3.24582906268617        1.18320129468639       -0.27300434601325
C            1.90307007072175        1.53370856151922       -0.17266912696772
C            1.15424818946749        0.35136452026992       -0.01828711382102
C            2.07771160476923       -0.75512239716164       -0.00254940797583
C            1.56144241034995       -2.03124165241858        0.28082214880653
N            2.36587543768213       -3.11277209780365        0.48189965289244
N            0.25774460529339       -2.25608702065122        0.31113898379281
C           -0.63372626933614       -1.26546417421636        0.16034818096820
C           -1.94028074384768       -1.69711041227238       -0.03847994717042
C           -3.12981773734006       -0.98380770525851       -0.23124935488971
N           -4.22193278561561       -1.71053179163693       -0.57503074174250
C           -3.30828640596427        0.40497017379619       -0.05994078966954
C           -4.60298779268708        0.91531691023477       -0.21906000537569
N           -5.66717339564941        1.34037393469790       -0.34621153170222
C           -2.29666453730640        1.34132265888528        0.31898695681899
N           -2.70937461491470        2.56859574316514        0.71490679246859
N           -0.99377059239878        1.21088159257583        0.28358629259290
C           -0.22039201264352        0.14468988104551        0.13777774829351
C            3.36749921749736       -0.23957651876436       -0.17816406316104
N            4.55164905873291       -0.92700679124037       -0.20979807587147
H            1.50352493525544        2.52825660619152       -0.21647913388008
H            3.29346710218369       -2.94403933450538        0.83413870069437
H            1.89352731577800       -3.93354002771592        0.82742857424240
H           -2.02780612681416       -2.77447689224057       -0.11496091286593
H           -4.15932638742713       -2.70928251138775       -0.64576879754545
H           -5.11819302445883       -1.26695909264973       -0.67243240296172
H           -3.67582440609414        2.83688759136601        0.65431612880626
H           -2.00391941359438        3.26312760372834        0.88515386687666
H            4.52306484528867       -1.85992219491549       -0.59174909187618
H            5.35407172742928       -0.38286277866596       -0.49243582799811
