29
 energy: -51.198608875272 gnorm: 0.000638210414 xtb: 6.6.1 (8d0f1dd)
N            5.63013606975967        0.35622447667123        0.43519169391822
C            4.51750699766552        0.10230838590844        0.29241080908947
C            3.15469098600023       -0.15888878520488        0.13795345750019
C            2.55486130294005       -1.41347885613726       -0.04163217361768
C            1.17264588814690       -1.23085680300848       -0.09640079897149
C            0.11437036000474       -2.13761536958023       -0.23991408281948
N            0.31797501386797       -3.45947349055543       -0.39972034271588
C           -1.19267510189996       -1.62713530029894       -0.17942183774011
C           -1.48730854237175       -0.28061655862176       -0.06208576359289
C           -2.84863401455773        0.08979144245721        0.19590703758388
C           -3.74776418460886       -0.95890233657535        0.49167427231453
N           -4.50608807219748       -1.78636223598587        0.73832134807651
C           -3.42680498931212        1.35546523985063        0.28365597188933
N           -2.98550259783117        2.53005058481148       -0.10653848644623
C           -1.75840544989387        2.79635189042639       -0.51076767360645
C           -0.59259345567178        2.05979769942634       -0.41419958263183
C           -0.40390376881501        0.69738376878570       -0.10649147200436
C            0.89188207727998        0.18382428749761        0.00799474257567
C            2.14659556650411        0.83435834921619        0.18467780394959
N            2.39118443986151        2.15936994100709        0.37860158799051
H            3.09267002062902       -2.34137535585159       -0.11124131133464
H            1.24742369611806       -3.83682725372004       -0.37510029559684
H           -0.46336871172520       -4.08978476573535       -0.43172408765853
H           -2.00896967921803       -2.33503529964105       -0.20849474690018
H           -4.44781427111330        1.38716230463129        0.65649952674759
H           -1.66494830793930        3.80093175110359       -0.91526946300917
H            0.30450710549852        2.58562898846551       -0.71212410467026
H            1.66517621165740        2.71892805470706        0.79733101450621
H            3.33522101452191        2.39551416434975        0.64710552937428
