30
 energy: -56.508744100224 gnorm: 0.000717179198 xtb: 6.6.1 (8d0f1dd)
N           -5.61717951910216       -1.18162395034931       -0.72200860978731
C           -4.49105224233601       -1.16006884905103       -0.49759056554135
C           -3.11754595075338       -1.08513385402560       -0.23757292401959
C           -2.28051735661480       -2.11706264277782        0.15108095490946
C           -0.96915946013812       -1.60414644678752        0.24083204176101
C            0.21523446277997       -2.21402685349264        0.56778294051903
C            1.40463126047458       -1.48169869899921        0.44351691168279
C            2.60012914148854       -2.14448494447068        0.80315067257515
N            3.50636630054092       -2.71875767976713        1.20957653794304
C            1.41209445633195       -0.12453788702035        0.06808054066449
C            2.63336252362662        0.44035574231608       -0.41737797741048
C            3.58476921488349       -0.47878608383152       -0.93361727553222
N            4.35972134277548       -1.13659084911459       -1.46510154692840
C            3.01536996698473        1.76092963859098       -0.59887381598364
C            2.34155575735934        2.91760774789218       -0.22845041423395
C            1.05464924085624        2.99634764389404        0.26587142910789
C            0.08787401526190        1.99561579214940        0.35388668151913
C           -1.11412941561530        2.44269395837601        0.94234135202531
N           -2.07353946538745        2.84046054182358        1.43526473402893
C            0.15327567640144        0.59577383241045        0.06784600557706
C           -1.00970535841254       -0.17616518436468       -0.04127002656242
C           -2.36016263118611        0.12771058596984       -0.37191978942404
N           -2.89908293418139        1.24003141016222       -0.89163264769141
H           -2.57169920405619       -3.13424090746439        0.33304527068191
H            0.25616666895910       -3.25145489184313        0.86387965882438
H            3.99772815662939        1.89667173367413       -1.03553651037726
H            2.88353467954693        3.84738588066159       -0.32788075184379
H            0.72219365199462        3.97589625155925        0.59081643058481
H           -3.89736536689695        1.26220918363826       -1.02765188431834
H           -2.40615326561390        2.11511687914079       -0.91227172064977
