25
 energy: -43.524015526826 gnorm: 0.000811432101 xtb: 6.6.1 (8d0f1dd)
N           -2.92274693883964       -2.80454247057687        0.44820756664041
C           -2.66691599453036       -1.69264464591273        0.28991163843565
C           -2.39313240040962       -0.33981471375630        0.10537142715807
C           -3.39629345877822        0.65771401140203       -0.03347929573356
C           -2.80674536445753        1.88559549834632       -0.21241060678093
C           -1.40553282038360        1.70684774704405       -0.19602851010633
C           -0.35599117821991        2.59033136472218       -0.33474811967456
C            0.94766967722365        2.12563223541235       -0.22100764308919
C            1.24094288070444        0.77314606152717       -0.06156889885228
C            2.61352080498097        0.36925885185384        0.18778187102976
N            3.41928149231282        1.21231665020457        0.85129957546313
N            3.19070763921307       -0.71081239489180       -0.29528714465089
C            2.58007347517664       -1.80659796858616       -0.67698468252405
N            1.44196739283283       -2.27249830472247       -0.22304090077890
C            0.43260290894372       -1.57860416501871        0.22437138213746
C            0.17870703871551       -0.19624853051322        0.02563233932758
C           -1.13964590194920        0.29309953824343        0.01404640740133
H           -4.45179001739410        0.45503774353458        0.00408674295662
H           -3.31270870757979        2.82357240763168       -0.34523584095850
H           -0.54078517148830        3.64133781846591       -0.50466883171917
H            1.76214959297082        2.83218643411318       -0.29859135766301
H            4.38077848389475        0.95036676578878        0.98812218483671
H            3.07620430522089        2.07983557408706        1.22185252227848
H            3.15572547171866       -2.47737549880246       -1.30443244678538
H           -0.35431386617954       -2.17343717139675        0.67513050995185
