30
 energy: -50.120257838627 gnorm: 0.000604154507 xtb: 6.6.1 (8d0f1dd)
N           -0.30372057757189        4.09972055880572        0.21762949177286
C            0.01442850167060        2.99664489846202        0.16113570835409
C            0.45772583429235        1.66268814582071        0.09408874339593
C            1.82691189955324        1.40269959964230        0.09321543659728
C            2.25450166889990        0.10045608822506       -0.00033964461341
C            3.55882970072495       -0.47192145806910       -0.04761193417441
N            4.73326531912244        0.21453768339260        0.05596605092297
C            3.40770102250028       -1.85870305502721       -0.14675687923227
C            2.05367258384330       -2.16966389915860       -0.15958500121634
C            1.30097095952225       -0.98281249409807       -0.06955934059330
C           -0.08791489430034       -0.75718345250240       -0.03278811868819
C           -0.95707373380803       -1.85014442882491        0.01061388648409
C           -2.35256835564421       -1.92274940330975        0.05950801394209
N           -2.89421088446242       -3.18273516003310        0.09422106198867
C           -3.24975546115910       -0.85616201942209        0.00595805676693
C           -2.93304616977688        0.50224222732210       -0.09937373388502
N           -3.95328970414616        1.38768410787329       -0.23440821085243
N           -1.75770704004215        1.11051826295467       -0.05022967970300
C           -0.52524200924412        0.63894171719803        0.00714318411120
H            2.51919411926680        2.23241246652063        0.15674687075967
H            4.71024032444583        1.20565791383972       -0.11467733923242
H            5.57642274998291       -0.26225660468200       -0.21621485785221
H            4.21482978376253       -2.56668874673782       -0.20613732969716
H            1.66679627293090       -3.16954475038069       -0.24192089887113
H           -0.46423830392934       -2.81431505425029        0.03101937953448
H           -3.86559965392346       -3.27940616291712        0.33385793343736
H           -2.29582904713145       -3.95331756614776        0.33659055924219
H           -4.30376845646852       -1.10448058812226        0.02734647739110
H           -3.71373278861336        2.36262033892810       -0.26930219804436
H           -4.91239754569594        1.09861929489738       -0.26783540134439
