24
 energy: -39.786501200832 gnorm: 0.000898632005 xtb: 6.6.1 (8d0f1dd)
N            1.44716871803740       -3.80959388861749        0.00123768414144
C            0.87502245300997       -2.81376166979394        0.00014585164990
C            0.12935155982709       -1.61560677992340        0.00014682469575
C           -1.26165391938205       -1.73925523658105       -0.00018212217414
C           -2.03928693505715       -0.60366805537159       -0.00044753502857
C           -3.43142234783788       -0.41088148815331       -0.00075821463405
C           -3.67144262514957        0.95884775204855       -0.00098068373183
C           -2.46050632849258        1.64746713283986       -0.00085663474980
C           -1.41074375358472        0.70864074794433       -0.00051350495355
C           -0.01888017132278        0.85640651447318       -0.00028660626142
C            0.52180963758201        2.15712925653574       -0.00077117204056
C            1.83000942439775        2.60539644498330       -0.00064409158548
N            2.98346365890045        1.95990693460251        0.00035683690371
C            3.12405798734675        0.65267502776245        0.00114589695808
C            2.19290001287725       -0.38023139475763        0.00090135395053
C            0.79114208247264       -0.36114820116048        0.00022715590119
H           -1.70657859333023       -2.72461825896642       -0.00024554782507
H           -4.17150032933457       -1.18918960244686       -0.00080457865443
H           -4.64254438721301        1.42019569673393       -0.00122106140868
H           -2.36834078600522        2.71802170902689       -0.00096493804310
H           -0.22063187672939        2.94414813271613       -0.00141882231476
H            1.96578302899005        3.68361019272845       -0.00133755108507
H            4.16681542738671        0.34746826006037        0.00203238256503
H            2.62934635211107       -1.37298630068353        0.00141293742494
