32
 energy: -59.164037821491 gnorm: 0.000804880482 xtb: 6.6.1 (8d0f1dd)
N           -5.84452065990518        1.42164975670465       -0.66077484947145
C           -4.74437125649523        1.14683032750853       -0.47023862564149
C           -3.42364802758482        0.74598059614170       -0.25614205307194
C           -2.30980506805227        1.56323075741495       -0.05851994485026
C           -1.17989241836291        0.74188560943592        0.07071179068579
C           -1.61777772832897       -0.63003887263150       -0.01672388999433
C           -3.00978747212372       -0.61659217163697       -0.24156108552708
N           -3.84551719149653       -1.69002916640532       -0.38319301419609
C           -0.72209426208495       -1.66211115354876        0.26417403626112
N           -1.11544771948482       -2.95117596575527        0.39487340971202
C            0.65720317656865       -1.32527831595776        0.35474711966688
C            1.53268377392539       -2.38058244206635        0.66744992160555
N            2.13661118703272       -3.29161442211319        1.02714928930261
C            1.13027464002036       -0.00591088701003        0.22052514485876
C            2.48049886751830        0.21348269690609       -0.13408458710907
C            3.17197958655522       -0.88984222246468       -0.68193584710762
N            3.78945777489891       -1.69780314420870       -1.22017640641396
C            3.23134162159081        1.42353371394903       -0.14630614528657
N            4.48975046418201        1.37358217075832       -0.63859249878901
C            2.80640011516595        2.64742630859555        0.38901244349230
C            1.54364645778190        2.95163868969810        0.86628255915021
N            0.40937687571797        2.32383843774808        0.70567744374929
C            0.15656833129848        1.08883182111261        0.31549566149072
H           -2.31094327598535        2.63538534649392       -0.02605769448070
H           -3.46967685550789       -2.50946610539243       -0.83495496494923
H           -4.79055406204759       -1.46021337027551       -0.65632821745549
H           -0.43266225278680       -3.62111134955068        0.71523288837039
H           -2.08024175287043       -3.13576717263141        0.61166317834353
H            4.88177827263888        0.50635502430205       -0.96461022076083
H            5.07014331620438        2.19241876835184       -0.61559042428867
H            3.55441084817871        3.42733516351748        0.44500020196175
H            1.42960531903531        3.90103097221042        1.38234125604619
