33
 energy: -58.890672871941 gnorm: 0.000728266978 xtb: 6.6.1 (8d0f1dd)
N           -2.79760186411391        3.99459857611115        0.42352452770963
C           -2.45642461040602        2.90412106285998        0.29979673015784
C           -2.04981318422732        1.56074108700327        0.14365837558703
C           -0.68637180724903        1.37700760385366       -0.06487070638093
C            0.10829286707986        0.23679503170169       -0.07944639709530
C           -0.35984141349226       -1.13235629272715        0.01046792219066
C            0.56693559122534       -2.14183098383234        0.29157002401940
C            1.93334884183404       -1.92162339643237        0.39308358070101
C            2.43024392350596       -0.66441468183572        0.13510284670599
C            3.74598790248740       -0.15358307847277        0.08896870001700
C            4.92670485634807       -0.85785107265340        0.29152432734244
N            5.92046289110895       -1.41508017324749        0.46293517458892
C            3.64906525279625        1.22811172633953       -0.19163256201235
N            4.69991814067409        2.06226727213831       -0.37965153093359
C            2.28690185695905        1.57889660156642       -0.30678946763213
C            1.51549152554629        0.44051080650238       -0.11857363565907
C           -1.71049462638687       -1.53267739134674       -0.26405640002276
N           -1.88593933936904       -2.80573138545259       -0.68277230566384
C           -2.89598956836091       -0.78015015598615       -0.10583205832868
C           -4.09790582036284       -1.50144894718648       -0.26468720769399
N           -5.08458857324535       -2.07930401754799       -0.39778239764438
C           -3.07567997774578        0.58900608303794        0.19972125714167
N           -4.32429170564872        1.01334404661666        0.49224747789460
H           -0.13573530278965        2.30711984319033       -0.13033219548836
H            0.21424156525668       -3.14262635118649        0.49631266051744
H            2.59656004176010       -2.73615318387637        0.64482929065535
H            4.54286629009853        3.05430764025487       -0.39834945085656
H            5.62125688767342        1.73593933078594       -0.14319604418359
H            1.95060421345035        2.57574665578177       -0.52581435829184
H           -2.81029998650045       -3.15610143044403       -0.87100336949715
H           -1.09567452925030       -3.38260577950095       -0.90567473336130
H           -4.50135107166544        1.99569941504423        0.62020432629587
H           -5.10224867958940        0.37623800314126        0.46328153242036
