31
 energy: -55.434912238515 gnorm: 0.000888938719 xtb: 6.6.1 (8d0f1dd)
N           -3.06440432179332       -4.05580518255818        0.69988935284886
C           -2.66777880189805       -2.99851580984160        0.49931534104446
C           -2.16649658822599       -1.69720318213370        0.25090998009373
C           -3.10700547184405       -0.67649928433947        0.19920684701096
C           -2.89003120638795        0.65989969118428       -0.11333114814697
C           -4.07481963082206        1.42025369510522       -0.25445657985567
N           -5.03504213769824        2.03917070618383       -0.37358047763392
C           -1.67026796835843        1.36527929811907       -0.29633430514361
N           -1.80265168462122        2.63412190857751       -0.73711576478544
C           -0.34371748841002        0.89830203302104       -0.02348489230309
C            0.63568982407657        1.86337041247509        0.19962762096728
C            2.00288998725661        1.57688510919756        0.29024827843391
C            2.90981540551394        2.62069802564514        0.56171206893750
N            3.63782589732048        3.48133168697343        0.77909223551731
C            2.44712311817956        0.27884713039679        0.07042938387099
C            3.71495548257658       -0.29243535851481        0.01960158456564
C            3.54633760436763       -1.66301879221163       -0.19784221332793
N            4.53543436024608       -2.57331257585048       -0.37347801641510
C            2.15735595907450       -1.95861926068583       -0.27080789891681
C            1.44961768530895       -0.78072360241981       -0.11484597793798
C            0.05730843005287       -0.50947106120964       -0.04753884604732
C           -0.78356953847862       -1.60739804454288        0.05934086336512
H           -4.14038533176691       -0.96233144211169        0.35924940474933
H           -2.71985754024943        3.01489144804162       -0.90382625376384
H           -1.00022959459138        3.19179420798678       -0.96696930478459
H            0.35081258417342        2.89315172944092        0.36482535420254
H            4.64842985492172        0.22583132771130        0.12847985021036
H            4.31028874240272       -3.55203888139049       -0.34433396919967
H            5.48083111265743       -2.30700043823621       -0.16171218606745
H            1.76950069776010       -2.94551369634002       -0.44328163726114
H           -0.27849823144624       -2.56482371237320        0.07054309097201
