30
 energy: -50.915183409577 gnorm: 0.000770064507 xtb: 6.6.1 (8d0f1dd)
N            4.51672225102810       -2.88583892648363        0.53062738885244
C            3.90434551561472       -1.93442026569978        0.33842481342000
C            3.15019513691371       -0.75914696992062        0.10940085412856
C            3.88422326004475        0.39577922987781       -0.17464428096345
C            3.38034260955692        1.65828867450347       -0.41227063420848
C            2.06874653188721        2.10739411059551       -0.29805237521586
C            0.86959371906546        1.45475905934701       -0.01839854918509
C           -0.28603481865848        2.26509598996082        0.15868502935326
N           -0.16546193212366        3.64491462077174        0.25979946851743
C           -1.56541793435265        1.71716026803608        0.15217233339881
C           -1.73944927009137        0.35577265576033        0.01485316938669
C           -2.90090722129057       -0.43882833422051       -0.03068003212294
C           -4.21808557074853        0.00228416272987       -0.00540921740638
N           -5.31682843913293        0.34838210561171        0.00737678199174
C           -2.48383825897399       -1.79722605572527       -0.11572919822045
N           -3.32505083342501       -2.86203122818055       -0.13654407680636
C           -1.08578589079726       -1.84188901188666       -0.11515991584963
C           -0.59237923380970       -0.53174710058369       -0.03691176189710
C            0.71426582321629       -0.01569571232333        0.00997429130281
C            1.76107017027923       -0.92333758445736        0.12388569788699
H            4.95932491965090        0.27398154343848       -0.22689531535285
H            4.10828435706041        2.41464529522326       -0.67663380531633
H            1.96075004740121        3.16928328768938       -0.48324450855555
H           -1.03307138377893        4.11433152574588        0.47027109052329
H            0.60965846914293        3.99649373282225        0.79919382399555
H           -2.42546257935927        2.36608652293490        0.24828993856307
H           -4.30207725112823       -2.69453833367524       -0.30639108539891
H           -2.95869181776504       -3.76369536795317       -0.38606179736277
H           -0.51631417048645       -2.75039692414506       -0.18149268473049
H            1.44687638905922       -1.95225611509489        0.25288026587196
