30
 energy: -54.173290576929 gnorm: 0.000647864309 xtb: 6.6.1 (8d0f1dd)
N            5.23814625129021       -1.34749345673801       -0.57842024451200
C            4.21660865739815       -0.84698657370116       -0.39162256478198
C            3.00649929657034       -0.20493381490267       -0.17756292639143
C            2.83672713591112        1.18222681049376        0.06425993057513
N            3.83732458956372        2.09189756614168        0.21231194194373
N            1.55015848016380        1.52135059227568        0.21959076887951
C            0.83210949829043        0.37602176152583        0.08372682612611
C            1.70258295479699       -0.74451142781456       -0.16268717171441
C            1.16638884897996       -2.01729706835465       -0.30590158103618
C           -0.19193504728281       -2.18166685463032       -0.15088328871401
C           -1.06728206034657       -1.10432293986580        0.07485543139121
C           -2.45608761919977       -1.38798135985967        0.35959896790071
N           -2.75174298043280       -2.56228328092475        0.94924009069514
N           -3.49942435785897       -0.66337442366785        0.03301075957041
C           -3.48699504946775        0.59858408314306       -0.38370931829128
N           -4.56559515861421        0.98214327381572       -1.09435726045551
N           -2.64028391781800        1.56506746374790       -0.06996740053589
C           -1.37650523362076        1.41537207023225        0.29167610815330
N           -0.75658203560671        2.50608791817390        0.73110151992592
C           -0.55726848175412        0.22475194681334        0.13742935706837
H            4.74694411824478        1.83117138875846       -0.12923903536516
H            3.58437939672873        3.06283189744739        0.14493927740863
H            1.80587544230128       -2.86351145951599       -0.51080212551996
H           -0.60919035413540       -3.17326263963128       -0.25725889199506
H           -2.02819112682615       -3.16755036976752        1.29101559525278
H           -3.71498922892785       -2.76265498618377        1.15371584099381
H           -5.31601923970383        0.33130819246913       -1.23559496430268
H           -4.69105473422796        1.95779271071041       -1.29338305411084
H           -1.27131904029427        3.37130696733968        0.72612420005226
H            0.28192668347846        2.46775896836969        0.70834623408944
