27
 energy: -52.567988700835 gnorm: 0.000813284852 xtb: 6.6.1 (8d0f1dd)
N            5.05604236375324        0.18093633270553       -0.53469313642396
C            3.94620415259901        0.43583080743272       -0.38698613562031
C            2.60213545763218        0.78240357744473       -0.20962948504899
C            2.10502003836416        2.09461046759726       -0.14568526599245
C            0.72082106152106        2.06176506245073        0.04728813681366
C           -0.09449563371178        3.19305525676920        0.12241596450622
N           -0.75860255778302        4.13076401705045        0.17773940598373
C            0.31430741370088        0.70013508084051        0.10490612227847
C            1.51290016931649       -0.09791349116827       -0.06641819876670
C            1.42011201248137       -1.49405695879784       -0.02524390713172
C            2.56230915108932       -2.31890686046451       -0.15997782478840
N            3.45538213359581       -3.02826777322006       -0.26859831337799
C            0.18028888002070       -2.08715179578232        0.16344580042130
C           -1.00436095307238       -1.33863226654955        0.25572019971857
C           -2.21088315484915       -2.05795077029821        0.46832320871692
N           -3.44160510770694       -1.71224783878502        0.24348478491446
C           -3.85551413543529       -0.48429638698175       -0.08031942384166
N           -5.00316600422079       -0.39144094471467       -0.75534439489149
N           -3.32781650772657        0.65978405146683        0.36794515959277
C           -2.07902326783880        0.90054958130349        0.58133417185239
C           -0.93783794814265        0.10293339062747        0.25344227906326
H            2.69872787071913        2.98645175680549       -0.23177076475075
H            0.11792510389525       -3.16433421048124        0.21541953503707
H           -2.10565422949221       -3.09351593377336        0.77987428815603
H           -5.40669518841409        0.51471169185982       -0.92173786734766
H           -5.49890950870720       -1.22874636730638       -1.00847551832279
H           -1.88514271228717        1.87483986896889        1.01829361704945
