28
 energy: -51.472948059982 gnorm: 0.000808614525 xtb: 6.6.1 (8d0f1dd)
N            3.87272326477402        2.68120672681071        0.22920738750005
C            3.28700947603049        1.70105929164821        0.10745294117421
C            2.57184157603012        0.49173804029393       -0.02359763061610
C            3.23541004833534       -0.56681725267733       -0.67076160568310
N            3.00704760643730       -1.83862308317740       -0.53378751433342
C            1.95914310132912       -2.43717453757058       -0.01182327080063
C            0.65157790945355       -1.96623853042990        0.09821794853256
C           -0.38852523289868       -2.93900889940252        0.16500624655729
N           -1.66213193265027       -2.68745153468802        0.13601485290594
C           -2.03460849053671       -1.40783243477331        0.02764554135347
C           -3.31678097329555       -0.89537565063209       -0.05510683245558
C           -3.22213246178680        0.50524948794670       -0.17619405988857
N           -4.26331272913025        1.36657383186381       -0.26848023032944
C           -1.86132207878669        0.88906451160174       -0.11418188478048
C           -1.43328765131822        2.19666211531289       -0.30072579611571
N           -1.10667722908163        3.29347931796421       -0.44735562952724
C           -1.07847511323640       -0.29495866443322        0.02059963744155
C            0.27645960441205       -0.56611524657715        0.12795880380797
C            1.24129925093835        0.46976762122299        0.44654059440902
N            0.82151130937579        1.49614530083384        1.19085701766421
H            4.11978740641235       -0.32429909599200       -1.25080405573043
H            2.13091707126112       -3.48784578920343        0.20279838935509
H           -0.11129166121619       -3.98464542631184        0.19748044503775
H           -4.22579151896784       -1.46374870312272       -0.05045712575488
H           -5.17339653879224        1.00098697959389       -0.48656521159601
H           -4.07415071218393        2.32334400839318       -0.51673530149735
H           -0.14870037975557        1.57581194805030        1.44904827960145
H            1.41479986604754        2.30096799845346        1.32506477787255
