29
 energy: -51.993555815387 gnorm: 0.000988873833 xtb: 6.6.1 (8d0f1dd)
N           -5.49943162863556       -0.69480826416050       -0.69479476162272
C           -4.46111480061084       -0.27166849879162       -0.45592231054673
C           -3.17605188225703        0.24796495606886       -0.15218438101647
C           -3.11811979877002        1.61242145429785        0.13134018580056
C           -1.97463450379125        2.35173752992607        0.38710715954044
C           -0.65549324951364        1.94645751145579        0.33016757349645
C           -0.05240013018933        0.69200666267410        0.11771037766953
C           -0.77799389143394       -0.58527190305583        0.08638943174104
C           -2.15033574199886       -0.70048784018371       -0.11984517279273
C           -0.04183215495781       -1.80769533812633        0.17574760587532
N           -0.69348446574822       -3.01313691185381        0.29632796608300
C            1.35461572655272       -1.80844435071220        0.05872609465951
C            2.06291586337050       -3.02629109635794        0.11639592126312
N            2.62473924416650       -4.02519028477580        0.18189315696564
C            2.05372346063425       -0.60762198060826       -0.09812216728764
C            3.41698145208770       -0.34013139931079       -0.24474335307892
C            3.57877690435249        1.03918498803579       -0.27419614758312
C            2.32754292453513        1.66560331061386       -0.13932306135617
C            2.16178213634070        3.04958373761054       -0.14714366383717
N            2.06649565929080        4.19741165593356       -0.15904697905751
C            1.33502894506013        0.64803966917850       -0.03053411310892
H           -4.06340455246189        2.14031562877403        0.13701570074169
H           -2.12949262770928        3.40049461467323        0.60415922521925
H            0.05886643337292        2.74749150615487        0.47139692138118
H           -2.49734837370619       -1.70670866164519       -0.32813912181476
H           -0.09857181421928       -3.81942067850010        0.41326993040229
H           -1.55201910557512       -3.05044772978305        0.81924857286343
H            4.19642269083324       -1.07463214145019       -0.31926665913294
H            4.50976522408158        1.56438823301772       -0.38611838456641
