30
 energy: -54.926450176311 gnorm: 0.000666290123 xtb: 6.6.1 (8d0f1dd)
N           -2.74093569014262       -3.41445231130530       -0.59119012914552
C           -1.88911017631218       -2.65400603697655       -0.44300723010119
C           -0.80113384214839       -1.78585100962212       -0.26370731952009
C            0.48288876122944       -2.36770338559340       -0.23366011472734
N            0.65213579853146       -3.68938580440500       -0.42843023580123
C            1.55443670040930       -1.51502455612971        0.05600165307484
C            2.90780004226038       -1.74463065314232        0.30147191978650
N            3.56199390241018       -0.61769966595996        0.59135527718899
C            2.68793539575447        0.39510802037293        0.50445957725267
N            3.08611752415833        1.61204372303081        0.91841517027741
C            1.36865939912353       -0.08303766043651        0.14473763810780
C            0.12570136755063        0.50029582489863       -0.05861977166684
C           -0.03088058742012        1.89102781550275       -0.37043297479566
C            1.07553143187097        2.55942487762839       -0.91799130754623
N            1.94621123948670        3.14567444433091       -1.39262839616236
C           -1.16561581760705        2.70040940609040       -0.30384032579550
N           -2.37649819297347        2.47661251467516        0.13654573515908
C           -2.88896080973150        1.27170212397177        0.39531983595953
N           -4.14055092204593        1.32308473640965        0.90413028607462
C           -2.34384885894001        0.00525612426449        0.13286861187349
C           -1.02517410331747       -0.39499738161191       -0.08275968266035
H            1.56501711990243       -4.09705097762367       -0.34820154305147
H           -0.14485944243738       -4.28505465056646       -0.57526795647928
H            3.43755284386734       -2.68062946117086        0.29514348987202
H            4.07526978251370        1.67051204356879        1.10772298867600
H            2.64359862587287        2.44872613223426        0.57472673198431
H           -1.02165029219211        3.73014593434978       -0.62416399385753
H           -4.57108107873009        2.22568083071814        1.00189135358999
H           -4.68909992126370        0.49175561667512        1.02531827846212
H           -3.05911902218003       -0.80704591877815        0.20156853567104
