23
 energy: -39.274884748880 gnorm: 0.000265123852 xtb: 6.6.1 (8d0f1dd)
N           -3.80039409732788        0.55681309909462       -0.90680739026935
C           -2.75621102774259        0.14431298263642       -0.16361248172556
N           -2.85936780717645       -1.08238789301593        0.35502098104199
C           -1.80644037014170       -1.73311047440349        0.80021364637425
N           -0.53578867156622       -1.55956122356916        0.55012596548784
C            0.09405853287511       -0.44940154234755        0.20038010770541
C           -0.55497130190026        0.88977092231301        0.34634915362089
C            0.24940190185347        2.01367019187380        0.59467626234167
C            1.61433295813958        1.95464849347616        0.41703140221017
C            2.21794934071282        0.76712166756765        0.00637538665733
C            3.55705724012040        0.42890139852499       -0.24111942503830
C            3.62038066252860       -0.93877143009276       -0.52948698201123
C            2.34924558802376       -1.48421762884262       -0.44912098643908
C            1.44640332784748       -0.44493830319094       -0.11811098042931
N           -1.83156688226714        1.06823133784134        0.08468650402384
H           -3.86279382984674        1.52523270920437       -1.16536808999297
H           -4.60344845799966       -0.04205363349101       -0.97910434687090
H           -2.03718160493612       -2.63444350504960        1.36242420172734
H           -0.24359490712680        2.94428604455820        0.82843371697282
H            2.21349444144987        2.84448574750396        0.55326781667322
H            4.39268649754741        1.10376635728155       -0.19524309484191
H            4.51820847953871       -1.47910161260126       -0.77001058924484
H            2.07658248879420       -2.50885653807185       -0.61836360517302
