31
 energy: -54.643918822339 gnorm: 0.000608482703 xtb: 6.6.1 (8d0f1dd)
N           -5.73081546927245        1.83465296671300       -0.02882345728221
C           -4.68989626204463        1.34441690581305       -0.00352242589870
C           -3.42688222433647        0.72931351043926        0.02438554432975
C           -2.32698075632593        1.58417387329343        0.17481701374244
N           -1.04477779108706        1.37113023238776        0.17599295951600
C           -0.36280664706028        0.22599107083039        0.08017541277806
C           -0.88409455814147       -1.14387577449683        0.04127864325163
C           -2.24621824771840       -1.47790992636674       -0.03216084631103
C           -3.39127454128708       -0.69167372488180       -0.07363356043513
N           -4.58443961086276       -1.32578258858744       -0.19598323717056
C            0.02683217804857       -2.20395126674802        0.07137883028747
C            1.41177162128631       -2.05646902600957        0.07407129642273
N            2.22733148285608       -3.15356482957840        0.11129663190989
C            1.93116476884292       -0.75583987494519       -0.00764764961495
C            3.23541038812434       -0.24691405674053       -0.08218794586070
N            4.41541966533578       -0.94011077955949       -0.15183226214763
C            3.13956479511927        1.18208205932005       -0.03958287470757
C            4.25291102540197        2.02263772847605       -0.10063410754534
N            5.20471757498076        2.66536840217920       -0.16555998262165
C            1.80166311270988        1.54466519846745        0.03018538231829
C            1.02627332189745        0.36415644674628        0.03738490397541
H           -2.57751469558398        2.63698753637731        0.29521563158412
H           -2.44253804650698       -2.54415389286419       -0.09207452305934
H           -4.62770764120822       -2.32676731647689       -0.25250905524893
H           -5.43886596767855       -0.79675603514933       -0.21935768764649
H           -0.36857436773561       -3.21138357017228        0.09891059517550
H            3.15120078266644       -3.02027439048829        0.48906151266259
H            1.79081722379960       -4.03167405334460        0.34444225325056
H            4.40284107682775       -1.80963671300265       -0.66269507171976
H            5.22993274229971       -0.36852383605499       -0.32719220956840
H            1.41210564095145        2.54308750632432        0.06357845403414
