30
 energy: -54.143207452557 gnorm: 0.000840451961 xtb: 6.6.1 (8d0f1dd)
N            4.05643797165972       -2.36962068886985       -0.05724589956962
C            3.19825048605780       -1.60349049330510       -0.00942476871104
C            2.17281047540451       -0.64417754900970        0.04482966297103
C            2.56230565554166        0.69536729606045       -0.21930280986270
N            3.76676463833105        0.91490927112945       -0.78815933688355
N            1.90883135646553        1.78140966855991        0.13665429670565
C            0.63799306717742        1.94958050077864        0.42641915752134
N            0.36364959649349        3.08385260934733        1.09122497508676
C           -0.45808246232602        1.09123275249585        0.05774089952561
C           -1.73543372976218        1.65945735334526       -0.23942058397911
N           -1.87816003438109        3.04971919421831       -0.37944241982664
N           -2.85239323772177        0.98638609952044       -0.37766177692880
C           -2.79950172778573       -0.33654368412781       -0.22012108450481
C           -3.78359234984032       -1.32530537095119       -0.23919668904503
C           -3.10638552101600       -2.52006611428163       -0.02989568854449
N           -1.78192016311195       -2.36278310087161        0.12899090479000
C           -1.55048326702754       -1.03546893357560        0.01830466121111
C           -0.35074657726179       -0.32925224266546        0.12282234481984
C            0.86546734558587       -1.10605815545895        0.30481866071783
N            0.68578661709566       -2.38415358684287        0.61784198091267
H            4.40392729561457        0.15245411556974       -0.94179614581863
H            4.09774947480808        1.86098573313223       -0.85536011874116
H           -0.59530056903374        3.36490359506016        1.22372929166328
H            1.12208543570992        3.70323439600051        1.31705490885830
H           -2.82046690484691        3.25373414212469       -0.69038279924542
H           -1.18876598287877        3.48179130789310       -0.98100206525213
H           -4.83603766844923       -1.19597014856694       -0.38958870977976
H           -3.53011726343008       -3.50826668603133        0.02304110521223
H            1.48046545482232       -3.00488421064060        0.63588585784719
H           -0.30469065829345       -2.73969148503701        0.53819068225051
