36
 energy: -61.247745088325 gnorm: 0.000741119198 xtb: 6.6.1 (8d0f1dd)
N           -5.62356313125198       -1.37509810039272       -0.45573853741439
C           -4.56348213776642       -0.94111097467917       -0.32725346237819
C           -3.28585367408188       -0.41515595731639       -0.17428479873982
C           -2.97899152598277        0.93881283451488        0.08591536161460
N           -3.90689637776219        1.94711937555200        0.22440942367929
C           -1.57593823145035        1.05719266651977        0.11532031432134
C           -0.72829341342633        2.16122394223644        0.20479296348996
N           -1.20576817974831        3.43982933057986        0.33106945745631
C            0.64723704856388        1.93174959700912        0.15775453217602
C            1.24100043983219        0.67458767937463        0.05528162675675
C            2.65973502763313        0.64474804071126       -0.09834418645441
C            3.29299445496884        1.89764659544205       -0.19083263078065
N            3.87415610372376        2.89187660057845       -0.25560130295454
C            3.56016039902447       -0.44407847561384       -0.20876179844862
N            4.84924909944772       -0.14889666399668       -0.55345181516224
C            3.28681627683604       -1.78942877576361        0.01657799474278
C            2.06911395698213       -2.39714189897212        0.31248559412648
N            2.10134923457672       -3.75252048184412        0.54377509882604
C            0.80399955046401       -1.81057341555611        0.29989709688941
C            0.38331614702192       -0.49891486570960        0.07069647247831
C           -1.00311272327733       -0.25914656318305       -0.03500099793016
C           -2.07886066784973       -1.14989858445127       -0.26138788724722
N           -2.03191222459047       -2.49802946215090       -0.52726662466429
H           -3.67939612154877        2.65913738319384        0.90265171505068
H           -4.85999393943198        1.61827130210418        0.29635658681793
H           -0.52938238576194        4.17447594624041        0.18979473414103
H           -2.11535183855952        3.62075441130416       -0.06146269802529
H            1.28918157342798        2.80108724823763        0.18226509934215
H            5.55438341832933       -0.85691081006802       -0.45378168414427
H            5.15076485646379        0.81059097384336       -0.56568146583293
H            4.14412263091436       -2.45157490679590       -0.02859648188159
H            2.98605547741752       -4.17345778758559        0.76878256164162
H            1.29297489336857       -4.17521811364529        0.96756562433158
H            0.00494607056974       -2.49695876989711        0.54525757820933
H           -2.90699635818067       -2.88010875345817       -0.85920804658156
H           -1.22415121099578       -2.81357722686448       -1.04504422705318
