26
 energy: -43.225720182591 gnorm: 0.000768195645 xtb: 6.6.1 (8d0f1dd)
N           -0.91039162900730        3.34342194745882        0.91278906070122
C           -1.11857471918453        2.27426499101608        0.54411523406035
C           -1.51029596312419        0.97443112157232        0.15899326633187
C           -2.89637889299890        0.86750920526212        0.05265528263737
N           -3.67746185745731       -0.12948553850095       -0.30414771627986
C           -3.30204595333440       -1.39269459287617       -0.39629208349973
C           -2.10206704352408       -2.00493672019983       -0.09355543651319
C           -0.81475897754990       -1.45525079637648        0.09983644207214
C            0.22952717113706       -2.37105905163060        0.29205260918715
C            1.56244516965168       -2.00593093788371        0.28555968125370
C            1.88909058941031       -0.68734217648105        0.04703512959578
C            3.13244504830767       -0.01876523868260       -0.08501543264849
N            4.35937666534555       -0.58675378710092       -0.03102973981002
C            2.85976798698844        1.34225526951464       -0.34585965513175
C            1.49882511030022        1.54373623783695       -0.35136457226261
C            0.84262944440994        0.30496566330726       -0.09801277581897
C           -0.49866250004094       -0.03702530548313        0.01438203357879
H           -3.45130625152351        1.78329643380369        0.24510948370329
H           -4.11572935932397       -2.04408685106249       -0.70393604611764
H           -2.12645001800562       -3.08857737056097       -0.10404925081345
H           -0.02856747280356       -3.41176540970083        0.42355411661536
H            2.32547971954661       -2.75856550366063        0.43144883426568
H            4.45317822703435       -1.53136585290017        0.29675328786007
H            5.17022217080441        0.00543449328062       -0.00201301833888
H            3.60861074923793        2.09384605334931       -0.51648839659600
H            1.01969093900385        2.48185193619878       -0.55210837743186
