34
 energy: -63.404375558860 gnorm: 0.000812820289 xtb: 6.6.1 (8d0f1dd)
N           -2.70772476817580       -4.17803771281861       -1.04177269542617
C           -2.46612541842496       -3.10101644916233       -0.73316127494865
C           -2.18822860811144       -1.75841391090589       -0.37152656827365
C           -3.29403630328012       -0.93176263262962       -0.20912632621135
C           -3.29954778907700        0.39007784607082        0.21293448495510
C           -4.58476689977499        0.91539475435523        0.48411075820996
N           -5.62346618630692        1.35551275092323        0.70165094797461
C           -2.21461755890211        1.30037234009558        0.36914489375067
N           -2.52657648028019        2.46842773566498        0.95862045786303
C           -0.85730452671484        1.10881798199007       -0.04477122073737
C           -0.06282347522868        2.23989741255978       -0.33873130603497
N           -0.63704342991154        3.49491774334547       -0.56727810992430
C            1.33143806506217        2.16587971775100       -0.37894351475490
C            1.97049554945740        0.98119906543730       -0.10018419521121
C            3.34691853579538        0.65498567129010       -0.01529843692012
C            4.41455879707208        1.53937636411627       -0.13702018356885
N            5.30378351912750        2.26357280630323       -0.23426801632805
C            3.44253907816787       -0.72796302245621        0.21816084558446
N            4.57349195516001       -1.43974912741231        0.36913750027947
C            2.12032790017289       -1.27473676452487        0.26704180743923
C            1.90411347768511       -2.62701727225406        0.51831891901382
N            1.80944401597559       -3.75344036779819        0.74121040051275
C            1.19987938356122       -0.22727422618139        0.07934397003146
C           -0.21241374709791       -0.20625940818248       -0.01754851497234
C           -0.84471745342554       -1.43547070747416       -0.16501425700335
H           -4.26651583663683       -1.38783446484581       -0.35592436459055
H           -1.82353865682912        3.18144155665677        1.07345740379671
H           -3.47050210809673        2.64508701524831        1.26251349816471
H            0.02165596184321        4.16020636702573       -0.94765466924629
H           -1.50475757390163        3.48746504503026       -1.08507675338959
H            1.90483651780092        3.05514383826836       -0.60067490595994
H            5.46443650673138       -0.97576881168889        0.36629110889664
H            4.52729411329842       -2.42461081673741        0.56327315480500
H           -0.17908746863678       -2.28971572795957       -0.19962179327626
