32
 energy: -59.160241137676 gnorm: 0.000855754302 xtb: 6.6.1 (8d0f1dd)
N            3.09831956027815       -2.31186918360860       -1.26421952593144
C            2.62412293513771       -1.42092222069701       -0.71109083153331
C            2.11370887004847       -0.21699885148534       -0.17533828869209
C            3.06952783946107        0.81547623913202       -0.07945564584599
N            4.35529455292070        0.51910996725573       -0.37704339454569
C            2.81273457092461        2.13159413726113        0.35061740095817
C            1.59922290061744        2.73646644971496        0.54372898735079
C            0.29901809918777        2.25189035874768        0.34736476769186
C           -0.66275323481022        3.25805726066018        0.59771350403339
N           -1.34853772060501        4.14291723869411        0.85550460454450
C           -0.14891045936855        0.93855433197152        0.06808943114594
C            0.71643724707862       -0.22663935382525        0.10752014117271
C            0.13602463315489       -1.48872363213164        0.34434087262342
C            0.92727629240606       -2.56927786043184        0.77683175462297
N            1.44948043456761       -3.48059990031714        1.24649737996832
C           -1.26358234420233       -1.73192418408738        0.27878144216346
N           -1.76106695449692       -2.96556167070895        0.52539131286459
C           -2.05376693015798       -0.65941657301772       -0.11286385970309
C           -3.42265344659449       -0.51078418192928       -0.43834287291650
N           -4.38531647083578       -1.47089048188284       -0.50727372329429
N           -3.72387693307066        0.78137124344950       -0.68175867202384
C           -2.61231157655398        1.48632611381679       -0.52005014770382
C           -1.50582605394217        0.67339110905407       -0.17461641291811
H            4.61409821439269       -0.40657904544092       -0.67348230389712
H            5.06395106572843        1.22702479715822       -0.31234159030321
H            3.69047316744797        2.74653190171377        0.50322635953520
H            1.64040905368843        3.77320916553908        0.85873916108598
H           -2.74164654510110       -3.05539806252373        0.72868707952580
H           -1.13854926092958       -3.66090528345964        0.90768398830651
H           -5.25896075348935       -1.13378838130754       -0.88406258928308
H           -4.11022088961898       -2.39019323517607       -0.81582938120832
H           -2.62842958537006        2.54318230975996       -0.70092226128747
