24
 energy: -42.995056284711 gnorm: 0.000670067325 xtb: 6.6.1 (8d0f1dd)
N           -4.27820950626547       -1.66867189293805       -0.01669288192223
C           -3.22393672333563       -0.82549500970986       -0.04403325666023
C           -3.28913639280998        0.59351243684662       -0.03379815074034
C           -1.97570450455739        1.01088719459057       -0.01970882137369
N           -1.42643033359035        2.23367614642572       -0.00984517085427
C           -0.12359876080696        2.29649679084188        0.00160582540860
C            0.77759455854633        1.19814162789730        0.00208784022938
C            2.14058292822814        1.47281337159673        0.01777447007318
N            3.20487821589687        0.69030527770501        0.01281053088682
C            3.21691474248578       -0.63592235575859       -0.00087407833589
N            4.44522245263944       -1.17459602378824       -0.01901082056157
N            2.24163661587858       -1.57542440586272        0.00638995139386
C            0.96312320842799       -1.34451057607118        0.00356977803549
C            0.21436909310989       -0.14751316779672       -0.00884946126315
C           -1.17245716733815       -0.22344187905664       -0.02017832770742
N           -1.96720712810272       -1.30508912554941       -0.03700371330892
H           -5.19493252380028       -1.31546856775649       -0.22501409508815
H           -4.09182962020581       -2.64510129273372       -0.16583127451121
H           -4.17922395302503        1.18902576778267       -0.03561632961730
H            0.29116449362695        3.29806422662873        0.00983840578237
H            2.41527433435209        2.52568298185125        0.03385197872543
H            4.53844989598739       -2.17506533703950       -0.02425482937639
H            5.24774825174372       -0.57001217801565       -0.02095851929626
H            0.35263003301456       -2.24405821318969        0.01045640008192
