24
 energy: -39.003021175377 gnorm: 0.000318778377 xtb: 6.6.1 (8d0f1dd)
N           -4.42179393836255        0.74174786117318        0.00145958113395
C           -3.11501063386627        0.38765729350634       -0.00079471412440
C           -2.82450785939256       -0.98732245789997       -0.00014605574553
C           -1.61104649375557       -1.63029701733261        0.00042892502551
C           -0.28996331771947       -1.15435064761328        0.00009690928288
C            0.73380038377977       -2.12714495162972        0.00000521109624
C            2.07750889511671       -1.82896100306276       -0.00051775157594
C            2.45656520102464       -0.49128737091383       -0.00090104035488
N            3.65884735969261        0.10720416445934       -0.00146493864152
C            3.35761013369421        1.40962324516048       -0.00158020828358
N            2.06535833581149        1.73711440290496       -0.00114533227780
C            1.43925845007517        0.54043158129522       -0.00069062439565
C            0.07068506910747        0.24947586742990       -0.00020612815786
C           -0.80341003346773        1.35004277814157       -0.00003435795141
C           -2.16963665785766        1.43063320207615       -0.00039810280028
H           -4.68865024719384        1.70964793390259       -0.00917259484966
H           -5.14367597450978        0.04397059553214       -0.00914379320352
H           -3.69711206738478       -1.63115561755859       -0.00005335522841
H           -1.68460707673995       -2.71285642672209        0.00081293017738
H            0.43396699749249       -3.16631104848791        0.00029970666852
H            2.82192537301530       -2.61089130988826       -0.00064070603733
H            4.12610538806602        2.16190282696291       -0.00201777208559
H           -0.26653451538071        2.29211185711935       -0.00000319921390
H           -2.59174775404496        2.42899726104485       -0.00044754875724
