31
 energy: -54.636438783718 gnorm: 0.000647515624 xtb: 6.6.1 (8d0f1dd)
N            4.12415968009775        2.23463469864927       -0.13036251713145
C            3.09967143617454        1.72162567702327       -0.05263997134122
C            1.88137316353873        1.01852304622719        0.03199704968506
C            1.88299860912946       -0.37710395077192        0.01558675429842
N            3.12959948080382       -1.03161789767191       -0.08938352002605
C            0.67356976265001       -1.12202815183662        0.10217405017594
C            0.76424925993444       -2.56543127646625        0.15729779986041
N            1.82825880896063       -3.11547683115993        0.77098035378040
C           -0.12369804379758       -3.44264223470303       -0.47126305461529
C           -1.44690886764428       -3.23671022596302       -0.81342050133892
C           -2.26047435351879       -2.22226385762774       -0.35417921347524
C           -1.86080550084543       -1.07223993233201        0.32945406926516
N           -2.75486584658251       -0.46876580758323        1.12494101807698
C           -0.57405133256152       -0.42845676764823        0.16099930338138
C           -0.57001368893302        0.97237069702468        0.08431386980409
C           -1.56374091237529        1.99081276189373       -0.04784466843308
C           -2.93843234489949        1.88147976136914       -0.20462904857263
N           -4.08201223287993        1.78849304528973       -0.32804158246806
C           -0.84839897719226        3.19861826500209       -0.11817805111227
N            0.46838427055209        3.03394091498795       -0.04051804708557
C            0.66726753651812        1.71177554614910        0.05034666618373
H            3.16474424266490       -1.71515360255898       -0.83597035073497
H            3.88301643541723       -0.36071919832091       -0.19467200613658
H            1.96362864544110       -4.11123381844434        0.73626969627628
H            2.57557292613288       -2.52295589092905        1.10165511422886
H            0.26692655132838       -4.43695337266908       -0.65250591326434
H           -1.93167166643965       -4.03631209812542       -1.35737298590462
H           -3.32841406206771       -2.35505065977128       -0.46731439483222
H           -2.54091915807850        0.42597419465128        1.53542421573823
H           -3.72868167734814       -0.72145916583249        1.07525705121929
H           -1.27255953617757        4.18027837834899       -0.22991850190160
