25
 energy: -42.715336581852 gnorm: 0.000683056318 xtb: 6.6.1 (8d0f1dd)
N           -4.04577606041631        0.91028088820359       -0.00336241140497
C           -2.87671207116990        0.25036937958649        0.02222211190644
N           -2.83459704596849       -1.08993645782311        0.02586856526960
C           -1.53256143127550       -1.43603334872059        0.01749595062566
N           -1.06271796189498       -2.67670319992895        0.02060869537338
C           -0.67734622915132       -0.28677259457962        0.01029993613644
C           -1.56646161044858        0.83644995787430        0.01163861845298
C           -1.03837075495745        2.10524214390464        0.00471205350345
C            0.34720873885835        2.22890721510939       -0.00278861711194
C            1.23773834766913        1.15075723752762       -0.00266945083375
N            2.54489688958547        1.53087341431842       -0.00672654461002
C            3.58313207893397        0.74763781768141       -0.00469778089185
C            3.70561426474336       -0.64854334664790       -0.00107095200940
C            2.65923189098958       -1.56500358409635        0.00030160878606
N            1.36021390502462       -1.40119716745015        0.00260445107593
C            0.70405141880409       -0.20272773694435        0.00330057584275
H           -4.89312748095276        0.37970375023835        0.09623524250404
H           -4.06388932320740        1.90478609195085        0.13028296751912
H           -1.67630144931143       -3.47165228907338        0.01943142283335
H           -0.04407868474108       -2.72826742272194        0.01176242909268
H           -1.65962144834214        2.99015626302557        0.00353213324554
H            0.79638009819391        3.21027309053936       -0.00845091788498
H            4.52047722252883        1.30275433341174       -0.00660184460080
H            4.70921432352911       -1.05109560520699       -0.00039448902460
H            2.94253115057687       -2.61735918027841        0.00013662320487
