34
 energy: -63.404760252300 gnorm: 0.000485105147 xtb: 6.6.1 (8d0f1dd)
N           -5.64857475355060        0.70964303439863       -1.05974913804348
C           -4.55252581962762        0.50835930269134       -0.77784214298391
C           -3.23285360066378        0.18825991686926       -0.44738329634519
C           -2.14732175456718        1.05321526176748       -0.37214447542382
C           -0.99287444721349        0.29881476955185       -0.07164766950776
C           -1.40539084585668       -1.08153274276732        0.04929895072202
C           -2.78971292722801       -1.14357964043338       -0.18656937168881
N           -3.59813784922241       -2.24154451666799       -0.17684650271589
C           -0.47430903448702       -2.05353721646478        0.42399162579614
N           -0.83269332315141       -3.31472580987510        0.76003273308035
C            0.89283867741694       -1.68468453282052        0.36336259834362
C            1.81287099355658       -2.67403309771810        0.75703148733551
N            2.43984878311218       -3.52715664325177        1.20693958794161
C            1.32350966434265       -0.38184981867466        0.02922717896060
C            2.65938617602726       -0.20621279442669       -0.40072148679052
C            3.36572320754092       -1.35704863956731       -0.82796165821361
N            3.98273229687611       -2.21115404851759       -1.28461609548014
C            3.38577554047015        0.97209876494542       -0.61096923104473
C            3.06393254176626        2.26675917834536       -0.30352628959476
C            1.86315629220211        2.76512538302410        0.24008166284148
N            1.87227261767732        4.06731380765946        0.60968025656883
C            0.65023099604343        2.04959020795672        0.35338452672123
C           -0.39465071500878        2.80509988569717        0.93057695842081
N           -1.14797811587190        3.48016382780094        1.47910728398058
C            0.34479567205610        0.69126340498644        0.06657074000862
H           -2.19486115471701        2.10548470464132       -0.57563550119778
H           -3.19118629184622       -3.12605359045156       -0.43739511834715
H           -4.53767374342392       -2.09025969557540       -0.51469353478977
H           -0.11387065073153       -3.92948610128899        1.11126652293746
H           -1.77402204695345       -3.48028019731737        1.07242672545823
H            4.37114175343579        0.81781974435353       -1.03513916623473
H            3.83459840860217        3.00854730110016       -0.46973882046613
H            2.72330265250657        4.59762816870447        0.56094191216050
H            1.05720573718983        4.49371994072541        1.01673391119244
