26
 energy: -43.230417843795 gnorm: 0.000786875058 xtb: 6.6.1 (8d0f1dd)
N            2.94534623172729        3.21378270383282       -0.00553381319757
C            2.40870836573562        2.19831160593782       -0.00389739212032
C            1.84395710071784        0.89790997807454       -0.00315522529108
C            2.83520275466243       -0.08901519013110       -0.00870088511211
C            2.72958809224678       -1.45666435127540       -0.00810628155193
C            1.55380736685150       -2.22922668107166       -0.00364799523268
N            1.71058221160370       -3.57887156413557       -0.01754179337690
C            0.24482052831186       -1.74582080848971       -0.00346740782323
C           -0.30198757152983       -0.46169462927818       -0.00284817657611
C            0.42828244953156        0.80137515475065        0.00238891826628
C           -0.28920047714380        2.01034794323853        0.01194487085682
C           -1.66701562165103        2.08353933076674        0.01376838721092
C           -2.39507983206253        0.90647842727748        0.00431101218378
C           -3.76484399403322        0.58673882314431       -0.00075958508334
N           -3.95322210442003       -0.73371462018489       -0.01208781307902
C           -2.74792949173722       -1.31200791360652       -0.01389949763386
C           -1.70807770783702       -0.36292456637493       -0.00429807529890
H            3.84782047612535        0.29984493956945       -0.01277693589348
H            3.65839806044228       -2.01295567706945       -0.01163344901530
H            0.91285145582713       -4.18539033248592        0.04116766371647
H            2.62553492667612       -3.98627877456006        0.04121654626136
H           -0.50397094856840       -2.52929637864332       -0.00331431852695
H            0.27638691414404        2.93073387543474        0.01767760050685
H           -2.16066637963229        3.04438087787629        0.02161707728358
H           -4.60000934780909        1.26263382677411        0.00290193234394
H           -2.68443325337925       -2.38571201477081       -0.02330866511722
