31
 energy: -59.450427839193 gnorm: 0.000797399554 xtb: 6.6.1 (8d0f1dd)
N            5.96814488783505       -1.85163497939545       -0.67169284037856
C            4.93867237424620       -1.36841040047526       -0.50221092624373
C            3.72028816891818       -0.71841871402321       -0.28901648300776
C            2.44932500105850       -1.28760735325206       -0.25058048101533
C            1.51150311781767       -0.26288425961793       -0.01682428206257
C            2.23371774429492        0.97921441824373        0.10222412938707
C            1.52635457942648        2.12019690707674        0.44164009171788
N            0.21396546744738        2.13132698035810        0.49807924575456
C           -0.50450416219086        1.01758321386669        0.28765624876461
C           -1.87622381340218        1.26066990947055        0.09763221228727
C           -2.22829235194095        2.63045991738839        0.10397972962092
N           -2.59391022468606        3.71984969333600        0.10035187776752
C           -2.93968365113244        0.35774241098378       -0.18877986009405
N           -4.12029389020431        0.90254858348054       -0.55124645525016
C           -2.87343173632804       -1.04134988030306       -0.07847554020916
C           -4.05553149619206       -1.76129943266564       -0.30939369322534
N           -5.02112348050823       -2.36319034376878       -0.48855629738083
C           -1.72890672221755       -1.81804054487892        0.30252765655967
N           -1.95175485102229       -3.09609183245037        0.67654010217792
N           -0.46518442857122       -1.48282421522082        0.26618132712767
C            0.12425829095595       -0.29886429700973        0.16546024392202
C            3.61024989383501        0.68941691394975       -0.06965363365802
N            4.63745756041611        1.55260084391414       -0.03216282235704
H            2.22172354507698       -2.32870563112568       -0.37689176317934
H            2.00580037768358        3.06688538078541        0.66002737689236
H           -4.22774367060487        1.90272513730677       -0.57810229413380
H           -4.92194128529913        0.31524864279111       -0.70819951712220
H           -2.86933996067793       -3.50338345871165        0.62506364516509
H           -1.15276144265883       -3.67844862229149        0.85626233599107
H            4.47998848331306        2.52853098762264        0.14341736476029
H            5.57889320011225        1.21692387021451       -0.14337012067809
