29
 energy: -50.410607814093 gnorm: 0.000730044072 xtb: 6.6.1 (8d0f1dd)
N            2.69574850384254        3.73006846611341       -0.14091441528661
C            2.01632924721664        2.80446140655501       -0.10179744893833
C            1.16824432313011        1.68251750921861       -0.04507722896893
C           -0.20729934474943        1.86602945239571        0.01384967834640
C           -1.10436553593154        0.79006072476813        0.02780376713735
C           -2.51209819558367        1.06286144106135        0.11555957629328
N           -2.93233064588528        2.18392536807972        0.73130148682703
N           -3.47303456118596        0.37350838603108       -0.48631343567027
C           -3.41241589243181       -0.88011398073186       -0.84388962411617
N           -2.66923144869342       -1.82899108797917       -0.33031851775153
C           -1.49927209820585       -1.66737402474746        0.25662921014334
N           -1.08689997170638       -2.67776663113559        1.03449097761826
C           -0.59561835714378       -0.55759378506948        0.04058546199104
C            0.78439130931616       -0.75945371318143       -0.00325892236918
C            1.58588078147426       -1.90811144254265       -0.06299661270934
C            2.92254023371911       -1.50376674627879       -0.14489954234760
N            4.00806091731260       -2.34618377166950       -0.15860523878268
C            2.99348920414577       -0.09690778820243       -0.11745385614482
C            1.69937696485342        0.38520246510625       -0.05589145406318
H           -0.58785646569308        2.87740013740356       -0.02065849770977
H           -2.28219833460660        2.83134158175449        1.13936411525859
H           -3.90830321185457        2.41872512188787        0.67790960750443
H           -4.18160480430153       -1.20930988403583       -1.53462104812774
H           -1.68169445608201       -3.47997471065850        1.14999316821664
H           -0.16816463138922       -2.65344356533496        1.44221240690131
H            1.25876821118758       -2.93083223774478       -0.12512351100528
H            3.83998723366533       -3.28517246658025       -0.48313570718095
H            4.87275007511457       -1.94082843315291       -0.47960113193100
H            3.89222392676598        0.48976335867035       -0.15590394633443
