29
 energy: -55.986264285883 gnorm: 0.000998493436 xtb: 6.6.1 (8d0f1dd)
N            5.49587089792253        0.09250648976277        0.09578687721701
C            4.38824151300702       -0.19902362233318        0.01316887436809
C            3.02024833385437       -0.52574469048456       -0.09346451651052
C            2.68651756543055       -1.74052384026260       -0.71378592573715
N            1.60747865567808       -2.42130755698382       -0.47271553324486
C            0.47098652204863       -2.06237997181094        0.04736525087386
C           -0.10496824626650       -0.77311589727149        0.03792395736112
C            0.67735484879922        0.44504589132820        0.03940561529427
C            2.08672659958046        0.42583732776018        0.38180287254117
N            2.56397043159676        1.42986991742736        1.12775072561985
C            0.02694040738200        1.68760611570392       -0.10579308048575
N            0.75010745529833        2.87872861979128       -0.17673620679294
C           -1.38221818226380        1.77489528538442       -0.15901976285525
C           -1.99047195281280        3.03325269457718       -0.35080786299562
N           -2.42655913892979        4.08073723967340       -0.52156276486546
C           -2.15463275980331        0.62977095673992       -0.02140356191795
N           -3.49550640134664        0.51134811139186       -0.00377608351791
C           -3.74543981654378       -0.78410344483509        0.08125499417375
C           -2.57159625544933       -1.58004602055749        0.12275081519380
C           -2.53625888796478       -2.96942871944196        0.20159638860579
N           -2.51689271151265       -4.11802677470760        0.26918473362183
C           -1.50309923139218       -0.66317604029806        0.07325574506292
H            3.42907237382752       -2.23918098708606       -1.32587738456893
H           -0.15037077312020       -2.88935044212794        0.37429909432437
H            3.54666980869175        1.46975738072639        1.34970359034420
H            1.96421038943589        2.19653237976604        1.39330924326732
H            0.17481831972385        3.67535505905997       -0.41941662416392
H            1.60148920746046        2.84585821361633       -0.72025314818798
H           -4.75644048172707       -1.14730992111147        0.11636191367465
