30
 energy: -54.936398530968 gnorm: 0.000621085542 xtb: 6.6.1 (8d0f1dd)
N           -4.38505407471769        2.71118260748168        0.01624305054801
C           -3.61247323055931        1.85950648255791       -0.00684133587054
C           -2.69651650068632        0.79224937212832       -0.02920795545978
C           -1.35491847445070        1.09458685021255       -0.24461790994655
C           -0.22232717642064        0.28768717858825       -0.15700128037860
C           -0.21352187204572       -1.15671212874135       -0.08114948352359
C            0.96737537067232       -1.84047824994114        0.15544716224499
C            2.20790402729342       -1.19819086846105        0.30676320966456
C            3.34909730664497       -1.97090215610809        0.59589999187715
N            4.24773695460561       -2.64597355514015        0.82909318674063
C            2.27450320870351        0.17555648272597        0.12540828405720
N            3.34330110031862        0.98031982538978        0.16571505271967
C            2.86970820076414        2.21452184371852       -0.05218316701470
N            3.70604514368675        3.27163724885843       -0.13237122598739
C            1.45904279903883        2.24466347404320       -0.23445801914841
C            1.04346885743494        0.93197981223916       -0.13352079272777
C           -1.40407583871905       -1.92328261991294       -0.38423773986619
N           -1.24060032552808       -3.11251008607494       -0.98901093727999
N           -2.64827896417553       -1.64643918118279       -0.07786241670984
C           -3.21904051121423       -0.50451468117584        0.24984114251853
N           -4.44526952940512       -0.60585538249029        0.79719976492982
H           -1.15448520087210        2.14783229947132       -0.39865274219441
H            0.95089781763571       -2.91554215726114        0.27299538724503
H            4.66103446956078        3.11766511026237        0.14097916070739
H            3.33514664580711        4.20341572369918       -0.08225034166911
H            0.88326213451973        3.13091488708882       -0.41873917412101
H           -2.05566012894789       -3.66763096517362       -1.18561163140745
H           -0.33411713709948       -3.43282881799649       -1.27665275619252
H           -5.00108998691046        0.21583805828743        0.96158473770123
H           -4.84561435273405       -1.51833543839320        0.92473927974347
