26
 energy: -47.235454444953 gnorm: 0.000466421452 xtb: 6.6.1 (8d0f1dd)
N           -3.64889197770371       -2.32707957615395       -0.52317705498580
C           -2.77927533189404       -1.59702301063431       -0.35037391046980
C           -1.66527589809220       -0.75656459540737       -0.16385395459087
C           -0.36898105465437       -1.31461305584525       -0.13745889942501
N           -0.24578584244041       -2.70483455163262       -0.21407836225726
C            0.77027536792527       -0.50545975955234        0.01477579583786
C            2.06284994729392       -1.09646251124743        0.28010635995510
N            2.13066449286835       -2.21056417018574        1.02108155000489
N            3.20656806511169       -0.68154453975138       -0.22134230418154
C            3.61798696588306        0.49964077161832       -0.57596635300516
C            3.02794629285697        1.72344738672612       -0.24576875258383
C            1.70572694196615        1.87624022710000        0.10266850309818
C            0.65916331693495        0.93202931390931        0.08683341936170
C           -0.64074388200479        1.45553707231806        0.14632129801176
N           -1.05607304405162        2.72751672432841        0.25304486507199
C           -2.39067788512490        2.62680675979082        0.19524263802403
N           -2.90257845703169        1.40588365997242        0.04854550763420
C           -1.81740352298468        0.61618938329401        0.00867415713960
H           -1.11475364523308       -3.16115237508550       -0.46163541972859
H            0.52820434216275       -3.03794682299972       -0.77094942129626
H            3.03168475988253       -2.61459230022077        1.21346938168930
H            1.28846835589949       -2.65018854856514        1.35484572132046
H            4.56553568815941        0.49814392826259       -1.10465647788502
H            3.63750546519885        2.61086345047479       -0.33788923837263
H            1.35079482323323        2.88317475690529        0.28734119087954
H           -3.02007018306038        3.49458489927938        0.26748916225311
