29
 energy: -49.611775598539 gnorm: 0.000658690329 xtb: 6.6.1 (8d0f1dd)
N            4.53418352191762        1.08425692548360       -0.00503223637053
C            3.34231710537048        0.44246053851557        0.00795514877348
N            3.48785960129158       -0.89981457972605       -0.00658773153088
C            2.49182801068775       -1.75245195701362       -0.03692072828926
N            1.18744905146437       -1.64869935372208       -0.06323563412750
C            0.47718917387529       -0.48547148609236       -0.04139187750448
C            1.00012764879317        0.87918886148706        0.00397828676279
C            0.09960666341321        1.93698433838249        0.00251661739733
C           -1.29328288391965        1.79512994375764       -0.02567511685749
N           -2.10137911983755        2.91447646565091       -0.02751399437780
C           -1.80708410572311        0.50313129123881       -0.00920498842431
C           -3.12197374047237       -0.04466638448816        0.03443087699410
N           -4.28296180725355        0.67894759943746        0.10420348919466
C           -3.03682772510534       -1.43907218437251       -0.02855759575772
C           -1.69092520895030       -1.80504952045651       -0.07954416825603
N           -1.11767980407281       -3.00845317933199       -0.13574310733684
C           -0.89922691223045       -0.60130645044657       -0.05081321585498
N            2.30035275346136        1.24176020512278        0.02431002148859
H            5.37297283860969        0.53895877396917        0.07148617759199
H            4.55001451659962        2.08295114643664        0.08946548814420
H            2.83167136934789       -2.79104744310897       -0.04339437037889
H            0.52360154338967        2.93093981716486        0.00757367735355
H           -1.61842889660015        3.77874362229371       -0.22311448873539
H           -2.97562601001307        2.81931930586487       -0.52056324721181
H           -5.11063915995731        0.14421133577308        0.32138435683149
H           -4.22407019228079        1.56294006990702        0.58509455470088
H           -3.87456720743304       -2.11253781301127       -0.01769759947452
H           -1.65201011032505       -3.85860774028261       -0.12509760094637
H           -0.09505716504691       -2.97106725103299       -0.12112411799827
