29
 energy: -51.208794236210 gnorm: 0.000585926955 xtb: 6.6.1 (8d0f1dd)
N            4.39469213829812       -2.37598662133076        0.00761573921663
C            3.62900516613107       -1.51918211286154        0.00546483605330
C            2.72075806251610       -0.43610472037825        0.00312392492760
C            1.38398553457356       -0.77926864892822        0.00529971550060
C            0.21413248052081       -0.01042362022307        0.00464844740481
C            0.13153321837514        1.44496522434290       -0.00142478666339
C            1.23349114997242        2.30321101210531       -0.00414532065402
C            2.59560552890844        2.07051236626573       -0.00305426458382
C            3.30658846493731        0.86953933649146       -0.00014494886504
N            4.65583325031449        0.93733850361378       -0.00019705047973
C           -1.13918893014200        2.05288493756156       -0.00429919672059
C           -2.32733629077285        1.34264366441437       -0.00109020291896
C           -3.56441627543110        2.01789230922772       -0.00165606546142
N           -4.57619153030338        2.56046253148735       -0.00006266001853
C           -2.29121335001559       -0.06388136314644        0.00563095211037
C           -3.22754297878003       -1.07842632240573        0.01475161670391
C           -2.46920334961812       -2.27643674667907        0.02422868290905
N           -2.96078517626188       -3.53553526282240       -0.01257483720417
N           -1.14186219945419       -2.05791993493586        0.02229490506746
C           -0.98982355980977       -0.72389731133868        0.00919107528971
H            1.17388916438023       -1.84425342013538        0.00792853375116
H            0.97104285042424        3.35564756682086       -0.00799835427109
H            3.21825140649488        2.95797970893439       -0.00557638442080
H            5.12004129389646        1.82795306398015       -0.00427984353409
H            5.20914304667258        0.09697786439998       -0.00024852880876
H           -1.18980972848130        3.13323249134041       -0.00886824627181
H           -4.29655540957661       -0.99808802738391        0.01415460324595
H           -2.31163864692198       -4.28580858471093        0.14932494390585
H           -3.92881032384700       -3.68643724280577        0.20892244408982
