29
 energy: -50.414641861044 gnorm: 0.000560748851 xtb: 6.6.1 (8d0f1dd)
N            3.52636163310729        2.71249316926137       -0.02183369483534
C            2.88422323042532        1.75387171721596       -0.01087737250484
C            2.18266821692036        0.54003327884081        0.00314118141987
C            3.00950580325415       -0.61093435357818        0.00826931852114
N            4.34845653157102       -0.43150446219398       -0.00743636491012
N            2.67847303574171       -1.90457164231009        0.02765698134651
C            1.45632131242376       -2.39223756325631        0.04260721656682
N            0.25637818752344       -1.88940135298923        0.03711504039472
C           -0.10235383140222       -0.56993518782934        0.01795818243479
C            0.75184465876333        0.59927365213877        0.00538176758229
C            0.15052465567923        1.86309616066492       -0.00877618625311
C           -1.22207929239751        2.06874708266038       -0.01440332892996
C           -2.04989663352266        0.96876235447335       -0.00510754938738
C           -3.47481439859738        0.78912919383954       -0.01017385653273
N           -4.37659719566003        1.79308009668439        0.00948709129904
C           -3.75467892154768       -0.57874968201354        0.00669341183395
C           -2.54889850499289       -1.28726355980192        0.02105004654164
N           -2.31385461917337       -2.59620290654798        0.03581861107132
C           -1.46581259411651       -0.33219021926438        0.01158703541398
H            4.92538936600758       -1.25363461693853        0.00093866774717
H            4.75675876575810        0.48679812843817       -0.01661847385062
H            1.45564770848677       -3.48446296389966        0.06274933074905
H            0.79843893917291        2.72779442123810       -0.01652943148882
H           -1.60700317105128        3.07893223734964       -0.02401181227406
H           -5.35093710573968        1.58846257625626       -0.12545640168843
H           -4.06538655129536        2.73605027635332       -0.14109593294300
H           -4.73772516376122       -1.01216548620109        0.00857080075564
H           -3.05330147506712       -3.27598187186745        0.05233193156123
H           -1.31420395470998       -2.82451451062324        0.04633117445920
