31
 energy: -49.829224363622 gnorm: 0.000901466563 xtb: 6.6.1 (8d0f1dd)
N            4.11033668948701       -1.85846102169569       -0.79561864193335
C            3.24111980892419       -1.16172060279669       -0.50349187298122
C            2.19194542210836       -0.28527328589516       -0.16585171199730
C            2.60374524552690        0.95620336833200        0.38733067830509
N            3.90455947039034        1.06976392745519        0.76872670808967
C            1.78879785523605        2.07693743153432        0.52062944699558
C            0.45578285341810        2.22179652328283        0.19397235906085
C           -0.53827756794428        1.28846840888201       -0.09669344228734
C           -1.85819498671834        1.80786348450090       -0.32208785807783
N           -2.01040596570141        3.17851872228119       -0.57032957514228
C           -2.96863724322527        1.00713452826716       -0.20469930299149
C           -2.82924561126040       -0.34016043875314        0.12883848064335
C           -3.75049015810308       -1.34281987149496        0.37513474610747
C           -3.03897645524871       -2.53257636494404        0.61085028138169
C           -1.68411217648649       -2.30805018203254        0.46881545197627
C           -1.49336868288147       -0.93447464306415        0.16783736165496
C           -0.36495826424262       -0.14849403750862       -0.05024279565630
C            0.89120492424615       -0.77946694986891       -0.36591021728711
N            0.79348174306523       -2.00242212601663       -0.92983803210133
H            4.55717343560374        0.33253967860054        0.56481128367532
H            4.26712521026254        1.96841074357822        1.03036734779732
H            2.28799552108553        2.96632171334668        0.88635609766868
H            0.08946159676283        3.23644724156474        0.28767347503658
H           -2.96538472824537        3.42898963209676       -0.78350535454786
H           -1.36632129817133        3.56207610487336       -1.24712687195328
H           -3.95514971412594        1.42808588127702       -0.34921139638367
H           -4.81850356488743       -1.23097223691006        0.40809179259791
H           -3.48648718327201       -3.47813030110007        0.86515121783394
H           -0.91682787863120       -3.03599494151217        0.66616323283702
H           -0.12022548133529       -2.36412404275012       -1.14871600049025
H            1.61784966396479       -2.50286071093134       -1.21562597533138
