32
 energy: -54.363352309470 gnorm: 0.000496507471 xtb: 6.6.1 (8d0f1dd)
N           -5.06046969490813        1.46791255411589        0.06472980571119
C           -3.96259228373378        1.11645228526412        0.03314323590339
C           -2.62145124269867        0.70161695608130        0.00287146820317
C           -1.65462119541407        1.74188847203503       -0.03316161233435
N           -2.14296047625429        3.01347194416765       -0.09311703585279
C           -0.27639305538529        1.60889827818332       -0.03154873611661
C            0.58836213440436        0.50538004062374       -0.01538613024026
C            0.18693081786314       -0.89209554479449       -0.02010507859507
C            1.18773616073584       -1.87747869635636       -0.03360739679247
C            2.53993930595124       -1.59875293284549       -0.02960169893379
C            2.94898133199127       -0.28185866094534       -0.01007396483055
C            4.23833447871140        0.32309386302102       -0.00020367662501
N            5.42606665348881       -0.33217241596783        0.04388182668887
C            4.05122228715778        1.71546672388051        0.01735537729813
C            2.69641736309853        1.98755465076714        0.01340982123613
C            1.97043063593643        0.76797514796919       -0.00411295877892
C           -1.15620048308138       -1.36503739305408       -0.01051074858445
C           -1.30809544141569       -2.76892669323658       -0.01683816516023
N           -1.51402949203617       -3.90251873644084       -0.02407221175434
C           -2.40303240132547       -0.69166095444574        0.01267827201693
N           -3.51932481589484       -1.46343896403884        0.04939276816747
H           -1.51401950590994        3.79165460455343       -0.01887424444002
H           -3.12922631157556        3.18237099710170       -0.00053371600293
H            0.23813494314233        2.56098854857591       -0.04869136173600
H            0.88426902516825       -2.91313397763090       -0.04471518809256
H            3.25034372100745       -2.41416156050175       -0.03705290393743
H            5.44096847000171       -1.31571356015736       -0.16348261002811
H            6.26837159020052        0.18690137522429       -0.13498354184352
H            4.84142083707764        2.44406680846476        0.03038714739999
H            2.28550427602045        2.98076472593750        0.02278557973831
H           -4.42838926930912       -1.03460670949269        0.04838515658004
H           -3.45017433371379       -2.46593365015795        0.04466982293529
