28
 energy: -45.865198808996 gnorm: 0.000394188740 xtb: 6.6.1 (8d0f1dd)
N            4.75703844457295       -1.36834375167290        0.05983410681583
C            3.56654560057777       -0.68860173919964        0.04170392558180
C            3.41099733925850        0.67952412854622       -0.17685335299117
C            2.04173119637753        0.94683944163500       -0.18216748455464
N            1.41335801050958        2.08914468493482       -0.38067090590722
C            0.09365668979445        2.08344247327980       -0.28397691468256
C           -0.72293310672068        0.97562971341213       -0.02281671189456
C           -2.12726105894055        1.18249173484739        0.18722333353884
N           -2.54333237336881        2.45722545118634        0.42437350417505
C           -3.13628563380976        0.23302093822294        0.08016974084120
C           -3.02791831233115       -1.14878340740602       -0.11179988060945
N           -4.16076447269487       -1.84788531879513       -0.39155631920243
N           -1.97174825883387       -1.93331056711856        0.09081196227051
C           -0.73426700521289       -1.55129977784841        0.27084600661625
C           -0.08202406820965       -0.32042046612042        0.09997127396050
C            1.32849712931349       -0.32314045110664        0.06086158990491
C            2.29540532519836       -1.30338132061807        0.17645869860721
H            5.58619888316569       -0.81904423817477        0.21666757438765
H            4.75370824152090       -2.27653444306080        0.49468661795277
H            4.19674291956498        1.39580963859291       -0.31878539999489
H           -0.35042419310000        3.05178307815049       -0.48342895097210
H           -3.50731871974188        2.61448668272936        0.66087411182635
H           -1.87710235767200        3.15558863450526        0.69939811712124
H           -4.15022067605800        0.61617872158082        0.13025723243691
H           -4.99317068789171       -1.37853127845234       -0.69701616514184
H           -4.05576683599106       -2.82968836469256       -0.57743014359478
H           -0.08291330673632       -2.38748453617314        0.50804226270775
H            2.15212381305874       -2.35684742248398        0.33854063710095
