28
 energy: -50.689663103771 gnorm: 0.000360697233 xtb: 6.6.1 (8d0f1dd)
N           -5.14282526353376        1.68109945030203        0.41374958956858
C           -4.14926111246413        1.11182988825831        0.29861995720239
C           -2.92249172447205        0.45887334485700        0.18092815232338
C           -2.71713182072656       -0.90502528263394       -0.07223087597466
C           -1.34221324130628       -1.14375656933241       -0.06403604771398
C           -0.55416860491415       -2.27976277328037       -0.31369261384013
N           -1.07481600250980       -3.44920685969937       -0.72712677258521
N            0.76861018649920       -2.26744615449843       -0.12070326411963
C            1.39786238402382       -1.15851318899127        0.21610617248905
N            2.60998303619277       -1.30699265718455        0.72675976894450
C            3.55723775685928       -0.43286893919857        0.88963219072504
N            3.78870462944415        0.70568100415956        0.27219814185865
C            2.84626275219230        1.44318710813187       -0.30965626090583
N            3.32116561945031        2.51759528495277       -0.98080940759311
C            1.44716064103067        1.31621996349797       -0.16973846316589
C            0.73342525956497        0.16625609640321        0.14057295374428
C           -0.66738490836336        0.11203998454066        0.17276544219478
C           -1.66369073699289        1.09872899261841        0.32845106221427
N           -1.48637539732683        2.43399158503682        0.56560559434023
H           -3.50094940311956       -1.62205332249679       -0.23624066901566
H           -0.45660859783145       -4.23828709744557       -0.80103920945172
H           -2.06856157666216       -3.58247610513408       -0.76362624089886
H            4.35885212069822       -0.75050601851889        1.55227928297871
H            2.70871749717385        3.13445633085888       -1.48176150547670
H            4.31591971824262        2.60193718253795       -1.09090995322764
H            0.86410076842977        2.17310875976978       -0.48704546220832
H           -2.31289759539509        2.93565824375176        0.85583998373940
H           -0.63665755278311        2.70217546263700        1.03714468005372
