27
 energy: -51.780548977812 gnorm: 0.000719858740 xtb: 6.6.1 (8d0f1dd)
N            5.11981694184739       -2.03458914067241       -0.00684000358949
C            4.13339563534467       -1.44630904993380       -0.00749925744723
C            2.93955320384973       -0.69118884806412       -0.00277724097329
C            1.75833677601924       -1.39832654845609       -0.00716937917540
C            0.42509581006408       -0.95397909264400       -0.00301557119578
C           -0.57032488230895       -1.97849291287261       -0.00026529876952
N           -1.85943299335190       -1.80535170757388        0.00294276272087
C           -2.29035775409264       -0.54306139227222        0.00208768980938
C           -3.58292351130267        0.00788920148828        0.00238366315491
C           -4.81197633719950       -0.65318207063001        0.00610605706143
N           -5.83537371398807       -1.17493751046392        0.00593932304412
C           -3.38611548181266        1.40476943900767       -0.00165328581405
N           -2.10444366690200        1.75264348948990       -0.00432865251751
C           -1.39053003909125        0.59422338699847       -0.00168905481355
C           -0.01151547001205        0.40750226525351       -0.00312984541683
C            0.85111135562156        1.58564602626258       -0.00712656693918
N            0.22743660133044        2.75050268568385       -0.01892672772597
N            2.17543319234527        1.67234539221237        0.00285457313395
C            3.10070298953843        0.74033093512374        0.00868798773546
N            4.35632649672197        1.21634170967657        0.02554037295941
H            1.87530881216808       -2.47717801954350       -0.01288418255639
H           -0.24424242782465       -3.01092473043836       -0.00004827225242
H           -4.15469734512132        2.15714499537568       -0.00280002070195
H            0.78313515176479        3.59036381096776       -0.01951491796745
H           -0.81933254253964        2.73718519419055       -0.01790645748336
H            5.15238211554591        0.60084374647045        0.02942855873877
H            4.48643154638568        2.21339795976359        0.03263225118114
