26
 energy: -47.239986446451 gnorm: 0.000278976898 xtb: 6.6.1 (8d0f1dd)
N           -3.38813383843647       -2.21989400508950        0.16651407930280
C           -2.90753765000725       -1.17130511953713        0.16301102905775
C           -2.32451647967611        0.08731407637254        0.12140892453314
C           -3.00533446004812        1.30810626571004        0.22401103928953
N           -2.20040458400148        2.37062314063380        0.18119215993996
C           -0.95352986998121        1.89333950530692        0.08839267586001
C            0.23390485270426        2.60706917579742        0.01984880063645
C            1.44283474335229        1.93811212317252       -0.05032038513805
N            2.61138414782502        2.67484786549812       -0.11531172390092
C            1.49384105650601        0.50874730135058       -0.06634985531704
C            2.74511005591432       -0.12382323191372       -0.22957474012611
N            3.13419588131394       -1.28826482594977        0.21579320479251
C            2.34139123078334       -2.23452102599173        0.67355251801270
N            1.14429044941454       -2.50781614609160        0.24594046802895
C            0.30209107036431       -1.67364171496574       -0.33652205551069
N           -0.59499911361832       -2.20438797995432       -1.16420182727989
C            0.25681021175429       -0.24643933752345       -0.05359293342728
C           -0.94112563652772        0.43876099384518        0.03629897793747
H           -4.06921677671711        1.43239004345075        0.32200734244427
H            0.20665222013975        3.68596083105748        0.03963488233859
H            3.44338814269098        2.27855455389819        0.28825923739099
H            2.49460684034551        3.65651187811831        0.08204983059078
H            3.54677570580153        0.45383982817585       -0.68011316612472
H            2.79064769936343       -2.95256595546325        1.34988463254651
H           -0.63970159679417       -3.20805339868015       -1.24561758332557
H           -1.38893861926557       -1.66958347492730       -1.47751624645186
