32
 energy: -59.168240630596 gnorm: 0.000719515987 xtb: 6.6.1 (8d0f1dd)
N            5.85181370068379       -0.80059409296287        0.84488534611872
C            4.79544470419052       -0.42919957302763        0.58753428318839
C            3.49385975822077        0.01279352199701        0.26578947122646
C            3.24566788554932        1.36631619665907        0.47976285433529
C            2.18054735473347        2.10836487682468        0.02189863419811
C            0.97387536429269        1.64446560793891       -0.50714302465893
N            0.23995742055710        2.49344928531391       -1.23660263618172
C            0.42141397124201        0.32807640116231       -0.26022514523610
C            1.20023634368532       -0.87797126332417       -0.27072314982282
C            0.49683164582642       -2.10742401353815       -0.19722659946029
N           -0.79826938666784       -2.24773836829040       -0.11586654674991
C           -1.53400963878186       -1.14779508221896       -0.06062142430209
C           -2.92950512908740       -1.03446738128905        0.07684881057426
C           -3.87363006583450       -2.05791323707996        0.12040291238521
N           -4.69943291473221       -2.85762581846814        0.16294526150602
C           -3.23442962748570        0.33936082387891        0.21578321392099
N           -4.47540519470653        0.85701956379837        0.36022530049851
C           -2.03819661320587        1.09216970328730        0.11571536823480
C           -1.99595077341803        2.46391573195898        0.32431126752684
N           -1.98400460042238        3.60541888932819        0.49466007944232
C           -0.95840566661658        0.18620579312386       -0.08524898987377
C            2.62479537458278       -0.95608210763187       -0.30457232334107
N            3.20429882687257       -2.06823182529321       -0.79271187548620
H            4.05820197143589        1.91710064162027        0.93772569492713
H            2.29104148599750        3.18453002102465        0.05412689076728
H            0.48017715884132        3.47042361011392       -1.27532735535953
H           -0.68083847986663        2.23227243034157       -1.54918670220236
H            1.04149308015037       -3.03965629616884       -0.12143015009423
H           -5.23422302803963        0.22921225914234        0.56456270599334
H           -4.57377338370385        1.82115866388895        0.62954462833101
H            2.65204163426229       -2.82284489671578       -1.15973102537043
H            4.19451805014480       -2.20987182829404       -0.67002715153535
