35
 energy: -61.532498053119 gnorm: 0.000631500409 xtb: 6.6.1 (8d0f1dd)
N           -5.63059153990389       -0.39016937942079       -0.33871738856458
C           -4.48499662056772       -0.33342633808060       -0.21425825858522
C           -3.09568159233613       -0.25159001997176       -0.08092384395930
C           -2.33233762145023       -1.41042243030651       -0.35391542331384
N           -3.02908450999197       -2.53172590353584       -0.70628856527253
C           -0.95432666415206       -1.55703507691331       -0.20344461077937
C            0.05544853793431       -0.61794638461232        0.04008999034621
C           -0.17932700491908        0.82306595793066        0.02932466472778
N           -1.33270078963251        1.43267449457132        0.27050033145206
C           -2.56300495352787        0.99561555505210        0.35866497278161
N           -3.42841333175943        1.89600417878965        0.88847480773634
C            0.91229823921622        1.68990855620532       -0.16146521488798
C            0.66391786843461        3.07079818703792       -0.21657527386924
N            0.53460868471044        4.21342324023455       -0.26298644295572
C            2.25895803622348        1.24721512273342       -0.21895099478939
N            3.26424781240117        2.15653916439546       -0.40683260931641
C            2.49049082641847       -0.10994602593844       -0.05995043137261
C            3.69057562013751       -0.87454231376872       -0.03357629294645
N            4.96275677524286       -0.38851323785300       -0.24447811148946
C            3.36001471162463       -2.18919462018404        0.28312802503190
C            1.97105361878183       -2.29682259458952        0.40612914854090
N            1.30314659505332       -3.45471496107488        0.72089037568933
C            1.39305415193911       -1.02154340247446        0.14917391493973
H           -4.00235199468031       -2.44469725254156       -0.94505663396874
H           -2.52912462848122       -3.32721258238132       -1.06109295314207
H           -0.59694529326332       -2.55511278582196       -0.42382069078859
H           -4.42051778323153        1.75119067177209        0.81077902793141
H           -3.07716692040916        2.82601099418696        1.04077039563034
H            4.16059127725971        1.92949279347770       -0.00785087028187
H            2.99417275380028        3.12734685005088       -0.33936781267823
H            5.66438039285603       -1.10792410890239       -0.34626050094675
H            5.03629506280985        0.33345156838662       -0.94634456933366
H            4.05838788604344       -2.99697064313323        0.40914163267207
H            1.88439461060961       -4.18040469456792        1.11377740365622
H            0.41943978279232       -3.33585043516902        1.19391731430254
