30
 energy: -50.118518360041 gnorm: 0.000436390445 xtb: 6.6.1 (8d0f1dd)
N            4.85098291371350        1.77965707621734       -0.28722049451664
C            3.87548111453463        1.17368802289279       -0.19466966370483
C            2.69166160012232        0.45037657798975       -0.08775743160520
C            2.59158587866454       -0.94379683795222        0.09334194780277
N            3.63320081897317       -1.81539527549109        0.14641291406741
C            1.21464632902854       -1.26798430448910        0.10931753010445
C            0.52027671025359       -2.45293820777911        0.21904617288901
N           -0.79376911127762       -2.51559865014448        0.12576878078566
C           -1.53472501262638       -1.40187173040626       -0.00468023591707
C           -2.89696857603328       -1.67729106462150       -0.20591536625922
C           -3.98554150206017       -0.83443642432385       -0.33557288917321
C           -4.06555801371999        0.53068722943014       -0.16870180342671
C           -3.02185789205271        1.41533369736412        0.16424725213438
N           -3.37891692455692        2.72587155633717        0.36133701989936
C           -1.66561098903422        1.12378491957239        0.22656313128176
C           -0.95002531756298       -0.07134734214115        0.03681473402497
C            0.45385994440333       -0.03530330244474       -0.02037751115543
C            1.38691729947333        1.00930665447410       -0.16968600124903
N            1.14796134550231        2.34876325773166       -0.36273168221925
H            4.55463200917084       -1.43909334477904        0.29477207987660
H            3.45740342861931       -2.74540248454467        0.48417063250862
H            1.01861450373981       -3.40644209363031        0.35696322658138
H           -3.09483608343299       -2.73768112932384       -0.29290400487373
H           -4.92426795524104       -1.32700273621698       -0.56093204464356
H           -5.04579496926516        0.98057751673584       -0.26582726153519
H           -4.34862505604329        2.93579721234329        0.52244664305354
H           -2.71317573737216        3.34195718209760        0.79609976572387
H           -1.04495146870259        1.97079381457472        0.49248769702529
H            1.96614933060366        2.87873556972640       -0.62996758320565
H            0.32158436647952        2.57547263210164       -0.89653994697419
