33
 energy: -62.118573555878 gnorm: 0.000447105501 xtb: 6.6.1 (8d0f1dd)
N           -5.27074686927081       -0.87026453151451        0.63470510365331
C           -4.20500843437667       -0.48227206095648        0.43249280323423
C           -2.91648625119827        0.00388577761556        0.16475537916664
C           -2.85340326892213        1.28391258866205       -0.47064081517022
N           -3.94202518726654        1.70878148587672       -1.14274029036274
N           -1.87324370679722        2.14689470923321       -0.38330081354380
C           -0.64035135972187        1.96496887139934        0.07297931288972
N            0.01593840741772        3.07188672491479        0.40391445815992
C            0.11010900677222        0.73109523359138        0.09612135280564
C           -0.45345068819683       -0.59194573407301        0.09672918675578
C           -1.82737988192201       -0.82161097344326        0.48032118481124
N           -2.09913768807923       -1.93975086772392        1.17939527799949
C            0.39485695118244       -1.70337339327852       -0.12579139450977
N           -0.12939139962217       -2.99806939521874       -0.23695922960390
C            1.78985067069150       -1.56563787049561       -0.23286828167158
C            2.58699243014591       -2.68778909397164       -0.51738672251770
N            3.19285486334780       -3.63102938438251       -0.77147820792449
C            2.36386942910340       -0.30623519019580       -0.05777575302784
N            3.63582658863071        0.10186420212567       -0.04921976246915
C            3.53880552024447        1.43310885920535        0.11761114978648
N            4.63583259084564        2.20884029086057        0.24969299457640
N            2.29210572277833        1.93331703203324        0.20896324823585
C            1.49851243144221        0.83889234201026        0.10564677584717
H           -4.79629301800684        1.17864790915040       -1.12312357906613
H           -3.95108762012088        2.65565658697132       -1.47958642767110
H           -0.44750347782316        3.95406554183447        0.26130770164246
H            1.04932266179350        2.98494328223234        0.47575784995374
H           -1.36555022456190       -2.60225649562067        1.37198362190801
H           -3.04689688973155       -2.14680525950581        1.44719267653243
H           -0.98838480556146       -3.07003867727166       -0.76421075718984
H            0.56239072412688       -3.66719444235782       -0.55085070293709
H            5.51155260760060        1.78512100278933       -0.00119483576315
H            4.52912071395463        3.20002781560404        0.12718059556971
