29
 energy: -51.199615196575 gnorm: 0.000512942362 xtb: 6.6.1 (8d0f1dd)
N           -5.67401187738718        1.04486238329352        0.14957676358724
C           -4.59202573013141        0.65389699915756        0.14775008374469
C           -3.26309215958997        0.19797410805785        0.13769851644917
C           -3.04102268022681       -1.11886977803493        0.57949972196750
N           -2.00674427593540       -1.88277163754468        0.43998574143006
C           -0.75312202083748       -1.61579708547390        0.07087041212955
C            0.03905648220763       -2.73387108159712       -0.21387981065409
C            1.40962530124378       -2.65461000958909       -0.37272051840571
C            2.04037752546150       -1.43504232177329       -0.19159763368886
C            3.39951551985086       -1.07276391825340       -0.20996311234425
C            3.48745140999615        0.28996671659343        0.06384579543852
C            4.64521638545836        1.06030119631999        0.18932760771159
N            5.56833772605158        1.73485054266136        0.31538131990414
C            2.17130802233681        0.81541899232301        0.24527418533535
N            1.91084660051282        2.11683747244808        0.55267553214274
C            1.25757822661160       -0.24619056016536        0.06072302405862
C           -0.14727666799454       -0.28145760496803        0.03765991261364
C           -0.87734598321674        0.88601359396352       -0.19543626755381
C           -2.25652727778638        1.10985693115135       -0.27400308276430
N           -2.66142447272461        2.33558514423510       -0.68516258571136
H           -3.89356109353306       -1.61707410726781        1.03547768318560
H           -0.46505583722771       -3.68628689415908       -0.26342869353198
H            1.98682689803270       -3.54372391000632       -0.58026956261288
H            4.22842696490313       -1.72969546263951       -0.39602313709018
H            2.71015450113572        2.66889876385196        0.82870215954881
H            1.05482590417221        2.31615826994250        1.04679395930764
H           -0.27960642156413        1.74568216186264       -0.47469776861984
H           -1.99401683382459        3.01902497820191       -0.99380945997950
H           -3.64223385459362        2.54342904780703       -0.76373915179824
