33
 energy: -58.104191419413 gnorm: 0.000868862043 xtb: 6.6.1 (8d0f1dd)
N           -4.25610002426518        2.71587408197665        0.50863865721923
C           -3.58918313798593        1.79826048176567        0.30850369878570
C           -2.80547231066317        0.64869896510837        0.08335873151657
C           -3.54833961448512       -0.53371505735060       -0.10492089453328
N           -4.89974379494433       -0.44669926058609       -0.07095501477309
C           -3.00351231516330       -1.80099396585589       -0.35661946925162
C           -1.69659182717393       -2.20404545120860       -0.28197257128805
C           -0.49793457481538       -1.52113535930539       -0.02203236610935
C            0.65227239737305       -2.36233601988011        0.15124382205459
N            0.48776220491761       -3.73977587426990        0.27910482316319
C            1.93520543775726       -1.85632617795856        0.13782222988863
C            2.11957454442816       -0.48976296465034        0.00112433323362
C            3.25684662983021        0.33559419956939       -0.03391791407946
C            4.59642239916719       -0.02227608058896       -0.01949750921578
N            5.71793267922082       -0.28767609004228       -0.01720843342368
C            2.74818017876572        1.66232707575874       -0.10488500189066
N            3.49163145058310        2.79522835108463       -0.10250052251776
N            1.41384255014144        1.69067344808947       -0.11494348867182
C            0.98321169437686        0.39527491442393       -0.05334078697898
C           -0.33150215981118       -0.08483755365414       -0.03556618635536
C           -1.40428510723385        0.88282762159744       -0.00836855040444
N           -1.03226901981677        2.16008753749719       -0.02347770628923
H           -5.46021351524709       -1.26644372447398       -0.21566685902025
H           -5.35525877661424        0.43422068556324        0.09459802047688
H           -3.72974004383637       -2.57011539855798       -0.59031715477053
H           -1.55946855297578       -3.25949895296833       -0.47961424027001
H           -0.26143635549019       -4.04697537675408        0.87926305985856
H            1.35337141084320       -4.22267046736099        0.47069069522018
H            2.78689084409993       -2.51378559415205        0.24451892533119
H            4.47377356417104        2.70979059810236       -0.30118575453559
H            3.03564995020559        3.65547181938279       -0.35196147621056
H           -1.72339987231099        2.89004644400869        0.03974386086374
H           -0.00504718964958        2.35075540559252       -0.05561473802136
