27
 energy: -46.964125848777 gnorm: 0.000855121062 xtb: 6.6.1 (8d0f1dd)
N           -3.09269630161595        2.48729421319626       -0.19057414379159
C           -2.78109703614882        1.37598889033098       -0.18418886077735
C           -2.39159884196576        0.04415699633921       -0.13318527039636
C           -3.26155717176838       -1.05923115546612       -0.22374226202037
C           -2.53968762912131       -2.24212774211526       -0.18730844222491
C           -1.18438788949771       -1.91574859561551       -0.10263443424602
N           -0.12076541906016       -2.71320699650559       -0.07616576421171
C            1.05669473695535       -2.16672387102366        0.02097757488755
C            1.32275134993100       -0.77001095117121        0.10034284913872
C            2.69300127045315       -0.34717397997580        0.13266025495286
N            3.61636760718566       -1.20029243492293        0.62560859584824
C            3.16889520223476        0.82193058081309       -0.48395032139794
C            2.40516365197854        1.91899088303697       -0.82233256546767
N            1.25798866865570        2.25957439844094       -0.28046555129416
C            0.38517463098846        1.52857862573100        0.35101662206692
N           -0.40207549768210        2.12844541758537        1.25115908386514
C            0.19515249973092        0.10042307778291        0.09416754008194
C           -1.06629294133145       -0.46137901171209       -0.04215230776294
H           -4.33089882679790       -0.97538130273397       -0.30801290408706
H           -2.94208917990784       -3.23556687761893       -0.22866309842462
H            1.88118597693019       -2.86600614119431       -0.04718400601631
H            3.34807346280469       -2.09091465107702        1.00532901942237
H            4.59479314682105       -1.00372583549542        0.50411671602080
H            4.22553176121406        0.85184687662539       -0.71736175751598
H            2.82711643938115        2.67577197440822       -1.47296028681252
H           -0.37256877118595        3.13407464860759        1.30955282834631
H           -1.24270433188127        1.67181291802991        1.56558859821680
