29
 energy: -51.203017779897 gnorm: 0.000885806846 xtb: 6.6.1 (8d0f1dd)
N            3.08178163040095       -3.75902121344274       -0.13463457212385
C            2.23749164936738       -2.98222915192186       -0.11441795857117
C            1.20423286983617       -2.02278113246124       -0.09043762067228
C           -0.11889101667115       -2.41187320169037       -0.11188875819077
C           -1.17628639982722       -1.48042382568557       -0.06314758464312
C           -2.47533943436084       -2.00556315709554        0.06377512657063
N           -3.55246327399548       -1.45315858401078        0.55174224986757
C           -3.82986380611527       -0.17687950794679        0.68844707529496
C           -3.21692455706387        0.88418830813482        0.04363978396659
C           -1.91899608209297        0.89581156877694       -0.47716034142803
N           -1.57978642363885        1.90697088386335       -1.28872821940260
C           -0.88358395660647       -0.06541438214830       -0.14948228134962
C            0.44662398552503        0.32805624502012       -0.05517027264598
C            1.08090258469909        1.60289585856536        0.07548712218115
C            0.49559354066758        2.85061205171443        0.23118154121300
N            0.03788572284375        3.90281827751066        0.36002037017836
C            2.47473530563281        1.38648574171744        0.18660579233493
N            3.40804762955347        2.36988095728023        0.28243461676450
C            2.73267448567795        0.00683552770524        0.10734039420261
C            1.51927383312635       -0.65159929571070       -0.00599517635971
H           -0.36167663457194       -3.46446379482204       -0.11949479809585
H           -2.58929608750133       -3.07036307166708       -0.11954027654939
H           -4.73053739508200        0.01670425522378        1.26153707941438
H           -3.77474950929485        1.80779840530188       -0.04538339749489
H           -0.62535195548423        2.02044184890469       -1.58849655017452
H           -2.20055980958349        2.68971230358679       -1.41067119623085
H            4.33558960600420        2.11296503651876        0.57327553157991
H            3.09408755789195        3.29404882944187        0.52903430891143
H            3.70199730676187       -0.45260492076358        0.15261890535320
