30
 energy: -54.927450220411 gnorm: 0.000576938871 xtb: 6.6.1 (8d0f1dd)
N           -5.54281474701708       -0.82713071885147       -0.16949652586169
C           -4.42017934199476       -0.57936951176760       -0.11923260538674
C           -3.04176294441295       -0.31564888257752       -0.05433585874613
C           -2.64615623374112        1.01655402112290       -0.08801556399315
C           -1.37512396305931        1.56650655680055       -0.02831117361718
C           -1.37942827503091        2.97964079632853       -0.05888037831353
N           -1.42481272082880        4.12780431966016       -0.08035523231498
C           -0.09674289122782        0.91792599945181        0.02972915263354
C            1.03055911567461        1.72427014671462        0.08489077784227
C            2.35325867174726        1.25149579642253        0.08685065671565
N            3.38956726080351        2.12977448177089        0.15210579587014
C            2.53149095319652       -0.12570052170885       -0.02431658928777
C            3.64388623880550       -0.99812372277950       -0.10846396258996
N            4.96672930564430       -0.68409519224075       -0.15185758646268
N            3.25095975914237       -2.29335285351128       -0.11688919663413
C            1.92737785695970       -2.29964149782282       -0.06606890922396
C            1.38829634209619       -0.99242851967248       -0.02248941540707
C            0.06496301632894       -0.53746857932486        0.02056689663034
N           -0.85926247606945       -1.48966991236544        0.06978680072566
C           -2.17045622870835       -1.44790440268514        0.06872727163937
N           -2.74916653791470       -2.66174253837205        0.18591676574171
H           -3.45711658196916        1.73504201407560       -0.16095537104471
H            0.89093839608896        2.79595430563933        0.13164856160326
H            3.17149021676914        3.08749455346591        0.37556300472501
H            4.28194698738812        1.79022880954286        0.46794889259808
H            5.23246298472624        0.17557139145039       -0.60504478941207
H            5.56541092566959       -1.47497956925345       -0.33751425326202
H            1.38192683729670       -3.22374629181554       -0.07103440515722
H           -2.14785459205966       -3.46369413045207        0.25545737204031
H           -3.74843615950330       -2.77069154374504        0.17305286794959
