33
 energy: -58.899082363887 gnorm: 0.000605175352 xtb: 6.6.1 (8d0f1dd)
N           -3.24238760632906        3.49373932395311        0.23827026742924
C           -2.37954576610772        2.73932129087032        0.19681085585124
C           -1.27932970022439        1.85527176781986        0.16076792136457
C            0.00494949686085        2.36679422817972        0.16549932997203
C            1.15354880137857        1.55032704518308        0.13878809278369
C            2.37395093399726        2.23122124176454       -0.06731303941185
C            3.62034079298732        1.76865485020482       -0.37541232336953
C            4.09800120327523        0.43975861757982       -0.33922834446727
N            5.37416346804446        0.23621375888914       -0.74467609205890
C            3.41585913679837       -0.63770904822110        0.22019108746544
C            2.08667679795721       -0.75117659118001        0.60833089064163
N            1.77816110591122       -1.79049700128166        1.40566728647886
C            0.99352554193986        0.12725725364643        0.25227864333868
C           -0.29739475021937       -0.39616948410364        0.11228713997002
C           -0.78368836163100       -1.73062383399070       -0.06881066904183
C           -0.05683666033296       -2.89754324569774       -0.26152354429453
N            0.52297332264637       -3.88176432916942       -0.42773650519881
C           -2.18747541493892       -1.67586181180224       -0.19651159701503
N           -3.01410769333990       -2.74036218731141       -0.33966774958329
C           -2.60377782232348       -0.32484733111133       -0.08532664322501
C           -3.93318662670201        0.08228255135161       -0.17528981356155
N           -5.05053783159763        0.34092315693045       -0.26710287647827
C           -1.45267772171071        0.46584251188707        0.06677780260739
H            0.13218205295839        3.43960882150114        0.15365211261514
H            2.27006890994426        3.30974455515290       -0.09632328871165
H            4.35671917150033        2.51181607970027       -0.65545671037342
H            5.76119448858383       -0.68988727166952       -0.76548693565160
H            5.89976445875635        0.98389418832357       -1.15934109527314
H            4.01760520253177       -1.52150346876883        0.40146646077399
H            0.81854659268667       -1.96922393524893        1.65028242962648
H            2.43279797433340       -2.54226725504442        1.53898815878790
H           -2.61652898067355       -3.62573025589008       -0.60475712358742
H           -3.97135389307367       -2.56364144325581       -0.59454096199785
