29
 energy: -55.992192087643 gnorm: 0.000531620337 xtb: 6.6.1 (8d0f1dd)
N            4.52123367571413        2.55817898537702        0.43325853537787
C            3.57658938159605        1.92386701294486        0.27459003979595
C            2.42202521914905        1.13327702255930        0.09200457336303
C            1.26332136109673        1.82778808559640       -0.23487442125846
C           -0.04935747242558        1.39857207880432       -0.34783227512114
C           -0.92344510006575        2.40732096141747       -0.78469188251916
N           -1.61976221512323        3.24669691776454       -1.15404444718214
C           -0.61879007758405        0.10066745667471       -0.12448502796770
C            0.17755502253980       -1.11206436427783       -0.21915986211141
N           -0.37817349090364       -2.31430599448145       -0.41997327442378
C           -1.67986664665511       -2.48642904613871       -0.37524266975221
C           -2.52114976246095       -1.44640044502563       -0.03174118138960
C           -3.89974953129445       -1.33769872438999        0.24482676115609
N           -4.23858964429518       -0.10226988456607        0.56528088428050
C           -3.13196991968027        0.67487979300053        0.48030757622229
N           -3.23970836315402        1.93971425475321        0.89834867112537
C           -1.98019935196669       -0.10979190509236        0.09098525533733
C            1.58358550362637       -1.22389965319490       -0.08045799423818
C            2.02838432372036       -2.56989668902719       -0.13172141223973
N            2.49192559786946       -3.62063658334720       -0.16164443926267
C            2.59379645713484       -0.27546032767721        0.17916037485448
N            3.82620276061468       -0.72963129779792        0.47692325362639
H            1.40814213239706        2.89113030265504       -0.40212041592423
H           -2.03656515144161       -3.48712628468149       -0.57723542459943
H           -4.63076771092705       -2.12465939746490        0.23049485131965
H           -4.18376184359266        2.21838796470065        1.12272472989301
H           -2.60230497127230        2.66160110094123        0.59705884785330
H            4.58762746523331       -0.08342118510056        0.60406841216470
H            4.01211388695056       -1.71943072872574        0.47813119301988
