32
 energy: -54.370394937937 gnorm: 0.000748922286 xtb: 6.6.1 (8d0f1dd)
N            6.13038463928535       -0.68117566822426        0.05775230046943
C            5.01283293571796       -0.40726979645519        0.03510726902086
C            3.64441878799214       -0.08241062407772        0.01290332480054
C            3.34112888011170        1.28516056094424        0.03668951062763
C            2.12989160714368        1.92003442530604        0.03215901083046
C            0.80197166282779        1.42620300064598        0.00800861650555
C           -0.20392166544415        2.38741369274082       -0.00767599396628
C           -1.57147822862012        2.09920148083770       -0.02600648868578
N           -2.49017289983349        3.10825300535160       -0.05385031755870
C           -1.95000575121223        0.75576164555352        0.01841012585542
C           -3.21355346466578        0.13593793259963        0.05569204784184
N           -4.44859627676744        0.74620540999636        0.11216609510368
C           -2.99580272038179       -1.26253400511095       -0.01262962158262
C           -4.01472642084742       -2.21506727121939        0.00539356660251
N           -4.88415099132395       -2.96842763222089        0.03559897415584
C           -1.61807575880746       -1.50573654705595       -0.05878445632346
C           -0.94186624218169       -0.27746494258590       -0.02536036555524
C            0.44226765259173        0.01593308275392       -0.02266273206763
C            1.33295708959027       -1.05641073111497       -0.04419864760054
C            2.72498016543363       -1.15806854593094       -0.02843542501215
N            3.24580531791405       -2.41296302086124       -0.07166902548906
H            4.21205713457433        1.93069397883640        0.06412177592721
H            2.18996712573049        3.00206866551773        0.05404300369528
H            0.08556845395835        3.42983193323352       -0.01973846891996
H           -2.14473991816694        4.03089941009717       -0.26637315064893
H           -3.39915064336336        2.88757156585249       -0.42622606572522
H           -4.51050525274574        1.55395001620513        0.71481100901742
H           -5.21349340387508        0.09771034831422        0.24293352830022
H           -1.19369633923492       -2.49148240543341       -0.10649754627077
H            0.84679338280910       -2.02378678648428       -0.07456679609077
H            2.64276245231001       -3.21447658249108       -0.03593567492220
H            4.23932109198097       -2.55106802742029       -0.00617354523482
