27
 energy: -46.964188765698 gnorm: 0.000779959804 xtb: 6.6.1 (8d0f1dd)
N            4.03715692432512       -2.34595670824608        0.31951973090665
C            3.25081286193871       -1.51456898541001        0.21675389304125
C            2.28971961842511       -0.48629010077279        0.09223818406046
C            2.79332082397259        0.80346525208816        0.23520581995972
C            2.15797558054010        2.00720916790589        0.05223631938064
C            0.79910924410215        2.26890536351674       -0.16048633201958
N            0.50144883265940        3.54345100241565       -0.49948185895373
C           -0.29019262047929        1.35421447401385        0.01654002962260
C           -1.56417010670906        1.93065181329947        0.28668850862501
N           -2.70972282049702        1.31232696479513        0.37228617492649
C           -2.69405386396027       -0.00105260748396        0.15264272631302
C           -3.71029836822465       -0.95909236099060        0.11290775093728
C           -3.06582684333677       -2.16555216258318       -0.12157687542958
N           -1.73218324122708       -2.04224497414185       -0.23426585186603
C           -1.45783808904169       -0.72912536393047       -0.07416510118949
C           -0.22042410212021       -0.07138753348225       -0.09238959207947
C            0.96196594273934       -0.90326180197578       -0.18871149455158
N            0.75317066751808       -2.18292682235742       -0.46808466118377
H            3.85530410032993        0.85495818437702        0.44625667139928
H            2.79556069966035        2.88319441085837        0.06429422276915
H           -0.43162588536433        3.81395771193641       -0.74909686228281
H            1.23964738667329        4.21812726136652       -0.59565740213327
H           -1.62635847685189        2.98727189551593        0.51726863418926
H           -4.76170979656468       -0.79738649801316        0.23522449001095
H           -3.51526089533676       -3.13811050676963       -0.22214939704790
H            1.52725940035644       -2.82937400409514       -0.44814519857796
H           -0.25393813382708       -2.49898442563684       -0.47755971942666
