29
 energy: -51.199356945402 gnorm: 0.000732468582 xtb: 6.6.1 (8d0f1dd)
N            4.17965352289334       -2.84661337869074       -0.01388149724642
C            3.57515927196624       -1.86887052984137       -0.00928218730562
C            2.84802452106685       -0.65750582122675       -0.00349519736080
C            1.46605840896334       -0.80551365952221       -0.00666402441519
C            0.42297819386974        0.11939130640629       -0.00417957011107
C            0.57370931375939        1.56978589053768        0.00385636158412
C            1.79248562075554        2.26260989619567        0.00966105070054
C            3.09942323732428        1.83710778696927        0.00983314973354
C            3.62225052624408        0.53481371547212        0.00423171513242
N            4.96651283178448        0.40419788247765        0.00607830981012
C           -0.59576328939816        2.35465615610508        0.00565623822539
N           -1.83490769749974        1.91151861325244        0.00131928570738
C           -2.00914246043041        0.60374416678246       -0.00555012322097
C           -3.21018293646492       -0.12687427154270       -0.01406728878132
C           -4.51642040363768        0.35289769027788       -0.02720031024970
N           -5.62034163959708        0.67819764370390       -0.04656777712384
C           -2.86395818813899       -1.50529697763494       -0.02408638901585
N           -3.75735266887936       -2.51954235054535        0.00590215599866
C           -1.46317754391922       -1.63341582110488       -0.02148282718816
C           -0.90213670463572       -0.36071755655504       -0.00967442284321
H            1.14149071074643       -1.83980030889895       -0.01195433808586
H            1.67650935777112        3.34119821895061        0.01505193991274
H            3.85011210158051        2.61894620501835        0.01523508324694
H            5.55636724149758        1.21701561407509        0.01239418183298
H            5.39165389381773       -0.50780190182433        0.00315501799885
H           -0.50121470205498        3.43369212828924        0.01113258956845
H           -3.44774263684922       -3.46167398527638       -0.15251759327885
H           -4.73273543304664       -2.30802078175972       -0.11658238189784
H           -0.94896743238852       -2.57740308869030       -0.02753604822737
