28
 energy: -51.495815436154 gnorm: 0.000908756638 xtb: 6.6.1 (8d0f1dd)
N            4.74767057452460        1.67071206335893        0.12306968760274
C            3.70377572401590        1.19401031745872        0.08087677231906
C            2.41348085513725        0.61584049109986        0.03479771541991
C            2.39579958149360       -0.75276335245505       -0.22510357396497
C            1.34794727150539       -1.64071191281869       -0.10860576035588
C            1.68628112439889       -3.00003772674829       -0.31309386407584
N            1.95897358879243       -4.10222854025618       -0.48144322126617
C           -0.01796537612513       -1.38107574515086        0.22647064976706
N           -0.78162127003881       -2.41773924023747        0.53476712468387
C           -0.66623319822307       -0.09804788024173        0.13904789412308
C           -0.06360985343164        1.19342714049706        0.00561460913017
C           -0.88018904911622        2.30469955854834       -0.30636918243154
C           -2.25030065675484        2.25451710816310       -0.42691598652457
C           -2.87611822802312        1.04775173363887       -0.15966606364762
N           -4.17411216337454        0.68726911241024       -0.13366339113842
C           -4.13996840759206       -0.60499198258330        0.15460960970842
N           -2.92651447696468       -1.14769054983642        0.32307780192356
C           -2.07252677178392       -0.11453177576393        0.13114513281086
C            1.32478749313169        1.48661816102650        0.25267352686221
N            1.63135761575028        2.72671868977097        0.67398136257845
H            3.35889717941627       -1.19039659391607       -0.46680825054434
H           -1.82005991239600       -2.23508655914947        0.57743541059648
H           -0.39921885865086       -3.35069311176206        0.49518488520998
H           -0.39959541240299        3.24606823285391       -0.53180895551521
H           -2.81879077211755        3.12725779614395       -0.70603401039696
H           -5.03351157045420       -1.19269612245788        0.25761070773105
H            2.59551088368623        2.99137271162947        0.79985149004822
H            0.91194215419720        3.39478137587818        0.88682425414648
