25
 energy: -38.705213620343 gnorm: 0.000472932200 xtb: 6.6.1 (8d0f1dd)
N            4.18356673382394        0.58801831394480        0.04778201599612
C            3.00464036885163       -0.09734383856053       -0.01678224506105
C            2.86620195027440       -1.50098284780351       -0.04516359802954
C            1.52728957184762       -1.82889106328028       -0.04381582119831
C            0.75794290709125       -0.63603176539906       -0.01340699812153
C            1.70764303702043        0.46030088531158        0.00496448794326
C            1.25034585611100        1.76469402042683        0.04070904642131
C           -0.10813302901611        1.99965803361194        0.03763553874318
C           -1.06895827756965        0.97480780898328        0.00034978415943
N           -2.31989585674294        1.44359620792114       -0.05121985524281
C           -3.46286533138125        0.80365715361937       -0.07442011102531
C           -3.77173857396488       -0.54831028192573       -0.00425792199489
C           -2.85760017338248       -1.60272528709564        0.05511414245292
C           -1.48726788442849       -1.54092169086571        0.04419832425825
C           -0.61793002279066       -0.42044235871009        0.00072897939906
H            4.16331422910541        1.56853578136217       -0.17717000766042
H            5.02085783507799        0.09359600359858       -0.21156049132642
H            3.68615612961354       -2.19654013008225       -0.06646385385494
H            1.14793087354167       -2.83387008012639       -0.07060986813759
H            1.93991079018569        2.59847809200387        0.06623136787730
H           -0.48902778949124        3.00872056964115        0.05179403066010
H           -4.30947744831528        1.48503541784950       -0.14582515717403
H           -4.82216649640427       -0.80689267575663       -0.00201787127484
H           -3.28772900491150       -2.59671164461128        0.10427912156121
H           -0.97871522314583       -2.49497039715715        0.08738558132948
