28
 energy: -51.476673920313 gnorm: 0.000656114521 xtb: 6.6.1 (8d0f1dd)
N            2.91132964222870        3.80863699052523       -0.02886422730049
C            2.59620071981947        2.70635064132607       -0.05346912057387
C            2.24150274651562        1.33748918123644       -0.07795201403888
C            3.26158492152660        0.43225409739738       -0.43457275269887
N            3.29262404542400       -0.84699765797716       -0.22197114461161
C            2.33430172159881       -1.67198235390766        0.17072917793029
N            2.78265233473868       -2.80301745934276        0.73947659057018
C            0.92733883963471       -1.52646614996689       -0.06607913834716
C            0.14862203027682       -2.66827976460892       -0.27419866223648
N           -1.16788638115597       -2.70371602655805       -0.36970795187518
C           -1.81863200497947       -1.56496442892306       -0.21500173251628
C           -3.19920483620631       -1.34117476701143       -0.22881891076532
C           -3.41301887649954        0.02105321841985       -0.06450325310516
N           -4.59912143867980        0.66327703954115        0.01694055639764
C           -2.14230975919377        0.69003550513145        0.06797021275450
C           -2.04284096122092        2.06684313455769        0.23013167221126
N           -2.02783662384754        3.21279747047225        0.35740425857965
C           -1.13801848875844       -0.27859619845088       -0.01313499329342
C            0.26884530796087       -0.23294895964129        0.01713818988339
C            0.90917599310443        1.00659612227468        0.15192238332556
H            4.17010936087012        0.83851717143608       -0.86799725447792
H            3.77536680039159       -2.92725227586687        0.84660461623366
H            2.15048902558439       -3.52293267304337        1.04102860621566
H            0.63168685919039       -3.62837701646941       -0.41430071341964
H           -3.95351702719631       -2.09253122778536       -0.35303833710877
H           -4.61504336753967        1.66871087866880        0.01333193611454
H           -5.44650323261468        0.17002535813120       -0.19894180989512
H            0.25088289432766        1.84710166233894        0.34013316234654
