29
 energy: -50.421156008886 gnorm: 0.000699042995 xtb: 6.6.1 (8d0f1dd)
N            3.45556529676790        2.71765170055465       -0.11383590945412
C            2.71999343959663        1.83039024450831       -0.07674798667999
C            1.90439533319761        0.68834960369125       -0.03890335821052
C            2.61814958350587       -0.52883276032353        0.14024574037877
N            3.94407492283415       -0.45082378104193        0.39841714959530
N            2.18290163050235       -1.77601731395678        0.05453984490136
C            0.92568423883812       -2.17017417582530       -0.10589897931876
N            0.81369391293423       -3.51677732027023       -0.27183790986055
N           -0.23273141399204       -1.54063095202704       -0.04543328029665
C           -0.46796136989226       -0.21713548863097       -0.01587106376985
C            0.49384904461275        0.87612416918120       -0.11060512932776
C            0.00963017026005        2.18569085297505       -0.21427500347010
C           -1.33533055675008        2.51917910889759       -0.17352299510181
C           -2.26328561458783        1.50989117190847       -0.01528868162094
C           -3.68220591410714        1.48042461243686        0.07534444658289
C           -4.10025096189318        0.17363409746255        0.20250992421507
C           -2.96476146458737       -0.66963729994782        0.19175359288218
N           -2.88601057440079       -1.99890003401646        0.28061320401121
C           -1.80613764420275        0.15921881521221        0.05893987044015
H            4.45984623919483       -1.31037878588815        0.45586692463261
H            4.42379410031782        0.43207025558125        0.39705360314411
H            1.65880051719179       -4.03343992758041       -0.43634047354800
H           -0.06338612911865       -3.89962365551804       -0.57444173960051
H            0.73514671356491        2.98091923897402       -0.31191395580269
H           -1.63582070308304        3.55376056277255       -0.25186886584649
H           -4.31970026297466        2.34549767956170        0.04314537335002
H           -5.11659307188265       -0.16317015585391        0.29587563223520
H           -3.69806178412252       -2.57912742117018        0.39384256208036
H           -1.93219513892409       -2.35406130236698        0.23840364605946
