29
 energy: -46.392779315542 gnorm: 0.000402108352 xtb: 6.6.1 (8d0f1dd)
N           -5.44850868041567        0.78454638961030       -0.75176296546389
C           -4.37960719375217        0.43163503474117       -0.52552751862891
C           -3.06513523924520       -0.00769752097020       -0.24877680505444
C           -2.86672953415095       -1.39150272401842       -0.23031486479254
C           -1.71545296214053       -2.05710169188619        0.10842024849225
C           -0.41444049244930       -1.57467846811282        0.32648152066633
N            0.47835997505832       -2.51002779657161        0.73634748052049
C            0.09424828676223       -0.25038498220960        0.12322467565703
C           -0.74927950314089        0.93837761796796        0.19758164360916
C           -0.12695381825560        2.19531144969213        0.40417158917607
C            1.22992653158347        2.37306529848055        0.39972861103093
C            2.05606455414261        1.28340618572634        0.13473660322507
C            3.42743231062805        1.17900327267379       -0.02929741657378
C            3.72337918233360       -0.16407946032562       -0.34049023266552
N            4.98705314437371       -0.66637560682057       -0.54920746645204
C            2.54727353006932       -0.91325690988103       -0.31595395642330
C            1.47155104061576       -0.04835452371569       -0.01955936760917
C           -2.13172470384427        0.98768675916953        0.03808294367871
H           -3.73970469970322       -1.99871224338566       -0.43610374301238
H           -1.80878557971020       -3.13390017318325        0.20056929404229
H            0.13822329871927       -3.40879494972407        1.03314848390595
H            1.37195507333085       -2.19659738546164        1.08213311119829
H           -0.77022920310232        3.05295407657110        0.53951945492370
H            1.65682431586773        3.35379538294150        0.55350085168481
H            4.14175204985732        1.97848076560401        0.03713916455929
H            5.03854102244566       -1.53971643904211       -1.04954606146628
H            5.68609491745713        0.00727921067677       -0.81856625967153
H            2.49375738967758       -1.94695311946166       -0.60648921002554
H           -2.55428929431150        1.98669457071565        0.07835852726920
