33
 energy: -58.088376107824 gnorm: 0.000488229066 xtb: 6.6.1 (8d0f1dd)
N           -5.38742289399740       -1.25652522249639       -0.76253041107562
C           -4.38529973074325       -0.73656991215317       -0.53722174891875
C           -3.15555540186880       -0.13582343024369       -0.27371587424348
C           -2.94161353320208        1.17191844336892        0.17750537552845
C           -1.56570095967542        1.38333474141025        0.26509694133832
C           -0.82937120887835        2.53158192944312        0.60226294353521
N           -1.43987626928336        3.66148962809931        1.04001411522843
C            0.55198382793908        2.48883497680321        0.42893043384350
C            1.23420123933919        1.34260268387388        0.02948892275315
N            2.48578608729651        1.53281550195171       -0.37059276825296
C            3.44395706028347        0.68171415556764       -0.64886941876091
N            4.47596363095731        1.21910424152760       -1.35892604028830
C            3.57043156576336       -0.65818862382693       -0.23400522764865
C            2.56536572652561       -1.47270225726782        0.25022443443042
N            2.91419535349482       -2.74114262397733        0.61690163371154
C            1.17028420316500       -1.15592320467681        0.29032256015037
C            0.36988264048210       -2.18219481110315        0.81298118500089
N           -0.23980843278396       -3.04657617948527        1.27376713066226
C            0.51081404855938        0.06153336274403        0.01210474975113
C           -0.88594732657632        0.15420012176708       -0.07525403513351
C           -1.90095703012885       -0.77982865307285       -0.44147166833483
N           -1.78530507864877       -1.98046270381318       -1.05840327964082
H           -3.72390840433490        1.87432051608342        0.40310743368323
H           -0.90966563301776        4.51386034668972        1.08655403828986
H           -2.43887330394202        3.73442176045971        0.96810872981277
H            1.13275432266462        3.39167455618465        0.54325966557953
H            5.35913731201095        0.74398836688923       -1.40291027583861
H            4.46120887479688        2.21414280194256       -1.49948911082054
H            4.55706250749389       -1.09796999026185       -0.31051279731409
H            2.24651637156088       -3.32489414685639        1.09124406854532
H            3.88733951519619       -2.95859246542015        0.73551266042947
H           -0.93887084945125       -2.51554856167447       -0.97391199012167
H           -2.63675798369329       -2.50891738157628       -1.16645622758073
