28
 energy: -51.486583892374 gnorm: 0.000692383019 xtb: 6.6.1 (8d0f1dd)
N            5.42576277977643        0.33011623633828        0.75581536346137
C            4.36401349736675       -0.03101705184841        0.50210102109377
C            3.05870920658216       -0.43231210299713        0.20869481865444
C            2.64523197911753       -1.68062949868160       -0.25378851188312
C            1.24747033499145       -1.66959133637691       -0.36751070574023
C            0.36248952341395       -2.66736864232661       -0.75287938343783
C           -0.99211749276034       -2.43534746782681       -0.67127767876813
C           -1.50280373987747       -1.20021563176713       -0.24519182741307
N           -2.77331170117063       -1.18268875899036        0.13014821078759
C           -3.56314177222478       -0.17966705768249        0.42700269736299
N           -4.61732728127587       -0.45017612309867        1.21913927596558
N           -3.54433835337627        1.06981714886532       -0.08007366068753
C           -2.45380287238462        1.65184809647048       -0.48602374886129
C           -1.10728018490048        1.25254676403651       -0.38757531244540
C           -0.21048502313521        2.24977130456985       -0.80743461023882
N            0.49223285546734        3.09624209122640       -1.14668443659130
C           -0.59055326660011       -0.05202232513403       -0.13384908906812
C            0.76747277997266       -0.34712912463247       -0.02661445656489
C            1.92005302779048        0.41275832956016        0.36293128632793
N            1.99220190156773        1.61268862034682        0.95968915906237
H            3.29092032606648       -2.50873899521304       -0.48082599305774
H            0.73528436419469       -3.63689737261926       -1.04886372674576
H           -1.70481905102259       -3.22092255113972       -0.86477996491273
H           -4.78522925907185       -1.39953520463730        1.50122532954118
H           -5.34053447466981        0.24120862076223        1.30817297868358
H           -2.62292539909847        2.63817492021184       -0.91103417968549
H            2.91337168233335        1.98421954446831        1.13484718852615
H            1.23899135212754        2.27599866931280        0.89288532703267
