27
 energy: -46.962848964895 gnorm: 0.000466401374 xtb: 6.6.1 (8d0f1dd)
N            5.13228079654886        0.61186990449174        0.39988490701057
C            4.05581989118368        0.23855364843086        0.26127512805026
C            2.72863964291686       -0.21820531822315        0.08698276167281
C            2.57243852730391       -1.60167877445071       -0.07971420916864
C            1.40968240749379       -2.31232650626934       -0.18640014199234
C            0.06514467025932       -1.88101435007943       -0.12186989069225
N           -0.86666002131194       -2.82497309183556       -0.13503075374253
C           -0.43141437279868       -0.52044139847584       -0.06654891358059
C            0.36652650980476        0.68649819934643       -0.08208946191912
C            1.74605972358962        0.76896271827035        0.06589111172578
C           -0.34493745273523        1.95345809350634       -0.16773572725585
N            0.35585260094124        3.13052223511018       -0.30926167436283
N           -1.64058449769675        2.10271875323513       -0.06481979131707
C           -2.38275479722117        0.99909544989353        0.06959248630774
C           -3.75367042349906        0.81452801493483        0.19646937327868
C           -3.94018022587084       -0.57094930698405        0.19754272334272
N           -2.80316236131985       -1.25897138745972        0.08377486656763
C           -1.80560466000576       -0.33219633670379        0.01399248091429
H            3.49340959425263       -2.17223546447187       -0.10755907992755
H            1.52137579940981       -3.38608621578866       -0.29112675368835
H           -1.86884415169448       -2.50387204827836       -0.05157696651895
H           -0.59979749397711       -3.79496419074570       -0.17609768054589
H            2.13694572792024        1.77025864514657        0.20282647164281
H            1.15862265040075        3.14522653270371       -0.91595469115552
H           -0.26114886320339        3.92215988868160       -0.41637033714323
H           -4.51153797091794        1.56718804995714        0.27091107507977
H           -4.87496118007340       -1.09863437664239        0.27689894261781
