28
 energy: -49.900538711403 gnorm: 0.000558626872 xtb: 6.6.1 (8d0f1dd)
N           -4.05366665112670        1.68667612485026       -0.19475103908741
C           -2.91713881947107        0.95078040314863       -0.07760632350957
C           -1.70896925547601        1.66120453739695        0.02693617532014
C           -0.40791602349663        1.17260339242484        0.07561751653314
N            0.54113716211272        2.12086122636890        0.13765626029209
C            1.83541543679200        1.83260017620081        0.08998247258207
N            2.68617256258343        2.88367847219072        0.13319052767098
C            2.28361882348331        0.50675586833883       -0.04427044292001
C            3.49960679578660       -0.17053539286088       -0.15151815225526
N            3.34055721665226       -1.50278948919037       -0.23592737945774
C            2.02222443131458       -1.73787217008445       -0.17760145796997
N            1.45808770744148       -2.95486689257529       -0.19762859690421
C            1.28150826578107       -0.52081458601860       -0.05993135562021
C           -0.07513456363899       -0.25946943997049        0.02071891714959
N           -0.90779017451366       -1.31032492895141        0.06510396244963
C           -2.22517390548444       -1.30600341571907        0.10620356743608
N           -2.77206359834422       -2.54685734059568        0.22364329102177
N           -3.14802278150953       -0.35216395046922       -0.02146466102337
H           -4.91034162073427        1.19158473094208       -0.36765501125724
H           -4.00575702895499        2.67060835282206       -0.38447180635017
H           -1.78405837439203        2.74106184871157        0.02701463254758
H            3.67028016584931        2.72548623329302        0.24610737329559
H            2.30214065739798        3.78935269155381        0.33788226862139
H            4.49225267818564        0.24407794695760       -0.17633484452782
H            2.01113637354657       -3.76129224006607       -0.42534702517369
H            0.44974804010562       -2.95691505895319       -0.25079133718223
H           -3.76050300838542       -2.60519287195619        0.38854637474994
H           -2.17821503920453       -3.31146698408915        0.48852989826894
