28
 energy: -47.481583481986 gnorm: 0.000779120670 xtb: 6.6.1 (8d0f1dd)
N           -2.42047225758667        3.33286652071541       -0.00850036355998
C           -1.65042504767744        2.48332987717626       -0.00645268426757
C           -0.66182656646805        1.47383924432559       -0.00403928064200
C            0.68245822024892        1.84273548569088       -0.00323801245939
C            1.73232490428428        0.92025390691825       -0.00070290586176
C            3.02667425349773        1.46956345483593        0.00022756862176
C            4.28028000328594        0.89298717965346        0.00252069631367
C            4.61636317389433       -0.45539774066546        0.00278687147469
C            3.75216935421098       -1.53673117388688        0.00107684748045
C            2.36619578680970       -1.54331559509792        0.00039647585346
C            1.41987172058200       -0.51458677182255        0.00123983771032
C            0.05691916841812       -0.87659531105491        0.00273207115201
C           -0.57466678525926       -2.12855396772991        0.00979227933795
C           -1.96213945189241       -1.93915901725736        0.00908754249185
N           -2.90941799322452       -2.91056580536299       -0.04228776336254
C           -2.23391674915366       -0.54502417384299        0.00269868957517
C           -3.51463440189605        0.00107467553325        0.02015796637764
N           -4.60309387545405        0.37335306532460        0.04757864586713
C           -0.99548505883550        0.12315072557659       -0.00096345040606
H            0.91694980344150        2.89763008979734       -0.00491471264662
H            3.03413091251050        2.55430696239643       -0.00083303209324
H            5.11271082983256        1.58543798411431        0.00351153416562
H            5.67427311206754       -0.68474962649249        0.00388794651181
H            4.21963465873541       -2.51364089285318        0.00015066669333
H            1.93117322012444       -2.53424156110417       -0.00138718725011
H           -0.10828281862105       -3.09619516426994        0.01434078970467
H           -3.86564800252678       -2.64561312613137        0.12475084524169
H           -2.64671790844851       -3.85564270068565        0.17592276697669
