26
 energy: -47.242438593051 gnorm: 0.000785308389 xtb: 6.6.1 (8d0f1dd)
N            2.43766086088152        3.60367248095283       -0.66452259716085
C            1.83816981944133        2.64029664309930       -0.49091151577502
C            1.04708839959525        1.49504517280935       -0.27540223579027
C           -0.35340723965116        1.63564185587641       -0.18767517335168
C           -1.20259503882608        0.55906220501980       -0.04744889263569
C           -2.61418475618701        0.78400236969858        0.22810210152863
N           -2.95542565492937        1.87643915093635        0.92559138769641
N           -3.60922878542568        0.05887560698332       -0.22524419181926
C           -3.54679194971203       -1.18220026431789       -0.65798542759375
N           -2.71084096810280       -2.12101009127135       -0.30620678783069
C           -1.48125209196636       -1.93299370090182        0.13712472254654
C           -0.67968212481381       -0.79239206136782        0.04154493835146
C            0.73120343456166       -0.92552136213210        0.09034100667285
C            1.59421878051779       -1.99667187757142        0.18999444580962
C            2.90437992623583       -1.44233276207158        0.07949775810117
N            4.06465673900216       -2.12414452973440        0.18479300439261
N            2.89796128660154       -0.11718828795707       -0.09335474229220
C            1.60436547527641        0.23923281788348       -0.10065976191057
H           -0.76034341794561        2.63457979343612       -0.26825498755729
H           -3.93107064738135        2.05552932402224        1.09374944513283
H           -2.26139264757497        2.52230246084480        1.25732327057406
H           -4.38902665819964       -1.50195425283647       -1.26265560967151
H           -1.00505622851284       -2.84548486086041        0.48013690466990
H            1.37121584393706       -3.03760699940154        0.31912641142262
H            4.06257814118045       -3.12426425278759        0.09450965339003
H            4.90745219799922       -1.62260754365210       -0.03648961030030
