29
 energy: -50.407789994460 gnorm: 0.000725498386 xtb: 6.6.1 (8d0f1dd)
N           -4.73050284583626        1.82427458636240        0.11068160828109
C           -3.70194409380309        1.30817544603882        0.06572194852777
C           -2.46615919741322        0.66938110135760        0.02548139344277
C           -2.27631360164897       -0.73496565250801        0.07601765018393
N           -3.28242623464819       -1.65994970202514        0.12526051023756
C           -0.89086415030852       -0.99024407324589        0.01917074178742
C           -0.09560591950350       -2.12840279559595       -0.06532185283201
N           -0.59790069846316       -3.39667719705125       -0.12740018697608
N            1.23853312196605       -2.04144760053435       -0.04265387470141
C            1.88402892003037       -0.88011797310924       -0.00290732019859
C            3.29027135165596       -1.01796909479193        0.09846785226853
C            4.26271929727907       -0.04747789810309        0.12919091772367
C            4.11465242343011        1.33321932044446        0.02718922609609
C            2.91848905274689        2.03468133780964       -0.11343564098863
N            1.66990149761196        1.65253177451186       -0.13331851788258
C            1.17303986787402        0.39392408522678       -0.05417549647466
C           -0.21046900526205        0.28481809688532       -0.02466094605677
C           -1.20291463767861        1.30288805193867       -0.03931404593965
N           -0.91799602160379        2.60889299121582       -0.09027815598213
H           -4.20070624333140       -1.28909566554240        0.32130229004365
H           -3.07345210323331       -2.53264580466907        0.58392457094004
H            0.09026650915790       -4.10461696052251       -0.33275888375102
H           -1.50345718084498       -3.52034408614481       -0.54847441812305
H            3.61019935572497       -2.04870309003327        0.17303322955504
H            5.28124569701663       -0.40403112944325        0.23194265963100
H            5.01651027999555        1.92923654038753        0.05258571406604
H            3.01501043048951        3.11605210413821       -0.21011834407224
H           -1.63994605161459        3.30569594197066       -0.13212920650435
H            0.07095444031470        2.82642844893246       -0.14800683790132
