33
 energy: -58.083414190127 gnorm: 0.000801835667 xtb: 6.6.1 (8d0f1dd)
N           -5.69642402176364       -0.54253546770185        0.49487528024502
C           -4.62038119390766       -0.15465722117978        0.37531421471862
C           -3.29389275088940        0.29121148542312        0.22718854453702
C           -3.00014468039031        1.57598684468151        0.67896721649960
N           -1.99457878626826        2.30997825886227        0.29427570985160
C           -0.88078461235169        1.93304098779791       -0.29791658177772
N           -0.27300639985082        2.87637718490278       -1.03210166982453
C           -0.21076977821214        0.66633033325620       -0.11504000845640
C           -0.94466640233720       -0.57523268415917       -0.15356723324072
C           -0.21040812520078       -1.79355826797224       -0.09081167014913
N           -0.88151835724870       -3.04388462858401       -0.07756067430176
C            1.17025998163880       -1.80260430479610       -0.02004959996543
C            1.88358382012318       -0.61777621051707        0.00460306183029
C            3.25813335346208       -0.35134351741593        0.10340406449731
C            4.28990590545871       -1.27681650860965        0.16571464675790
N            5.16156386464342       -2.02887717561301        0.23183595404661
C            3.40907251436661        1.06482149920182        0.18265732267829
N            4.61670934381157        1.70554504751627        0.24548743314576
C            2.15766726870139        1.66341638400125        0.09542066717649
C            1.18300543554447        0.65037681280577       -0.02479223874979
C           -2.36524986210239       -0.62727789902585       -0.34601646960463
N           -2.89158094706457       -1.66439603879895       -1.01917409546761
H           -3.73357166606918        2.09060108429632        1.28940799365180
H           -0.69880522199383        3.78422447407960       -1.10764692302647
H            0.61673009775818        2.68801125300629       -1.45991847246678
H           -0.21660975709851       -3.79853711151784        0.04275773595008
H           -1.59181777516984       -3.10284463197542        0.64352907965869
H            1.69641266435553       -2.74593364449636        0.04274407925827
H            5.40587929344460        1.14145779451239        0.51815047996728
H            4.61757367329695        2.65084442130751        0.59168643120129
H            1.99050650877348        2.72105953090594        0.19120650950018
H           -2.28522760353110       -2.42935073410388       -1.28407265931083
H           -3.89159908702589       -1.78500481479135       -1.04465642293017
