30
 energy: -54.928040512747 gnorm: 0.000728745652 xtb: 6.6.1 (8d0f1dd)
N           -3.07320315245992       -3.02167957460707       -0.56125508598098
C           -2.13628280766271       -2.37039123722900       -0.41784707559824
C           -0.94859469230038       -1.63664508317475       -0.26086724728166
C            0.28534404513226       -2.32661554784391       -0.29263591805046
N            0.32813719445846       -3.64376268125517       -0.56912793605631
C            1.42517159995026       -1.58780252832466        0.03396048121611
C            2.75882728123026       -1.95164772949478        0.25708032007141
N            3.50982643397413       -0.90848044659053        0.59506710303244
C            2.72524747127112        0.18673746548997        0.56408743201209
N            3.23688259668769        1.34336380957486        1.03168627922277
C            1.37647481596075       -0.15138136355467        0.19540190511191
C            0.18622422648239        0.55124712775359        0.00417861758243
C            0.11951224885943        1.91801999630511       -0.37420856163464
C            1.30489434703807        2.51603127447073       -0.82844977748465
N            2.25794468089939        3.04769013007895       -1.19853173699811
C           -0.99655578337449        2.76755728805702       -0.50759121438338
C           -2.29397402567413        2.56487192610692       -0.13215152700282
C           -2.78230835376226        1.35977337425713        0.44332775508312
N           -3.95822536311033        1.39606237232199        1.11049853489101
N           -2.24606039930609        0.17167742105079        0.33720639605021
C           -1.03976998252258       -0.25666040557755        0.00876089926346
H           -0.52845637746346       -4.15355996294569       -0.70461926686003
H            1.19377442870666       -4.14525811335388       -0.49116477925041
H            3.19970133568506       -2.93077884352510        0.19575242050805
H            2.88463749618080        2.22791068437605        0.70081316750651
H            4.22946427345465        1.29721988865565        1.20696929336017
H           -0.76307969392665        3.74102886839564       -0.92563669133588
H           -2.99510509096146        3.37998075638723       -0.24313790050692
H           -4.35869412511586        0.52101003472792        1.40112037245431
H           -4.53673585963074        2.21596386026441        1.08829427425980
