34
 energy: -63.401603232729 gnorm: 0.000722509038 xtb: 6.6.1 (8d0f1dd)
N            5.04510260777860       -2.34059367969745        0.18555219194236
C            4.01722455836128       -1.82675832126808        0.14421995883207
C            2.76048777823090       -1.19302154147139        0.08789126293927
C            1.67179187246851       -1.97934300712281        0.44166515463274
C            0.31410735754036       -1.71319608469286        0.37472641048214
C           -0.47789796054865       -2.76059562370282        0.88190314955462
N           -1.09322787842580       -3.63239181618442        1.31357712689946
C           -0.37797989932639       -0.49870791315962        0.03879470152624
C            0.27592480361472        0.78964423361137        0.11796453676303
C           -0.51863859892272        1.90997759533993        0.44125029058507
C            0.06529225023087        3.10650523903977        0.90594271992181
N            0.44852659539878        4.07399643683464        1.39225710691376
C           -1.92179026258571        1.86537511493107        0.41318214471243
C           -2.52473045428754        0.71032513089051        0.00187373152719
C           -3.90777009490070        0.38675024858896       -0.22742025782764
N           -4.92919152435162        1.24757220095022       -0.09184338750492
C           -3.97342011782721       -0.93903944827991       -0.63669398383178
C           -2.68515596376197       -1.49370894739036       -0.65015438205085
N           -2.41128237757821       -2.69900172886606       -1.17341453232059
C           -1.74965572039575       -0.48754016205714       -0.20736494115390
C            1.63728818914612        1.03243377659484       -0.23850728291421
C            1.89790550942250        2.33590011005041       -0.71740386755242
N            2.17619662431594        3.33252037865486       -1.22117797831364
C            2.74770530129442        0.17120162997796       -0.32141042206565
N            3.91549703368000        0.67437395647812       -0.77580474295357
H            1.92552454278086       -2.97537967198297        0.79134030051068
H           -2.47672790335536        2.75519861599738        0.67294379562323
H           -5.87537747314497        0.93620725539155       -0.21833795250632
H           -4.76682370549559        2.17819824388925        0.24787127338222
H           -4.86610594122009       -1.46213645074180       -0.92416623875962
H           -1.50610678847249       -3.12054350524074       -1.06173703307208
H           -3.18078653458638       -3.32042985658152       -1.35748436828418
H            4.74296594903953        0.10168708499701       -0.77244985573691
H            3.99434094888264        1.65083293822111       -1.00646990079915
