27
 energy: -46.969708800889 gnorm: 0.000991642701 xtb: 6.6.1 (8d0f1dd)
N           -5.20887835649677        0.94082983775561       -0.08870217769061
C           -4.17017109340344        0.45065079361088       -0.04108191149940
C           -2.92564430684877       -0.17328644140753        0.02405637170771
C           -2.68489554033585       -1.54490936170128        0.18303110518248
N           -1.38608383344971       -1.84701838275787        0.22094484904050
C           -0.71015207989675       -0.67776622390238        0.09112553324466
C           -1.64270784706578        0.41448629682502       -0.04137464471924
N           -1.25049504642114        1.67068685246422       -0.22485436923713
C            0.03551254975959        1.88814132870974       -0.18671563108998
C            1.06292686560871        0.92125787330237       -0.00087847485854
C            2.40129147095716        1.43221865253529        0.13910244869220
N            2.53637328635740        2.72254365906432        0.52596725881716
C            3.58498181578313        0.76003167905260       -0.15553897387784
C            3.78534014575200       -0.58448123957566       -0.41056145401152
C            2.90406026383758       -1.63169241852010       -0.27585157186541
C            1.54160116418740       -1.61406824359260        0.05987546173783
N            0.95076062376613       -2.78104543139680        0.30568048181715
C            0.67561694774712       -0.45052271821047        0.06250964035306
H           -3.42444279012905       -2.32033844572463        0.27640888230101
H            0.30426007155304        2.91803978531726       -0.38448817698671
H            3.45553644363513        3.11714659281490        0.61929075617650
H            1.75300694308108        3.25349621506863        0.85726785740159
H            4.47361933686496        1.37997652553267       -0.16611958405055
H            4.79833214906431       -0.85833939925625       -0.67808848993765
H            3.31751629169163       -2.62295718886927       -0.42187378094662
H           -0.09303888077173       -2.77730508291908        0.36983178665335
H            1.47966180397249       -3.63318427141955        0.21905690084604
