24
 energy: -39.783638821921 gnorm: 0.000717172072 xtb: 6.6.1 (8d0f1dd)
N            3.49372256647600       -2.38435170686840        0.00018739191026
C            2.80038895490983       -1.46952606371482       -0.00024843045667
C            2.01236955091102       -0.29119236358697        0.00016694301481
C            2.80923215604522        0.86432389352148        0.00049497869945
N            2.50696820050356        2.13848814194947        0.00073213048678
C            1.28157557771565        2.63965434583700        0.00065432842988
C            0.04022369084392        2.03477398478823        0.00032665845805
C           -0.33811101067872        0.67721939814874        0.00001129218452
C            0.60035409445838       -0.44949364659740       -0.00003864219918
C            0.09877269698394       -1.75488938552210       -0.00033754543330
C           -1.25492688615251       -2.04428059935353       -0.00059071857759
C           -2.16901284474949       -1.00802973787711       -0.00060309303672
C           -3.57277262741278       -0.98059483918611       -0.00088732556451
C           -3.97579523629664        0.35449825953982       -0.00077232458650
C           -2.85799729655358        1.17811466533269       -0.00039442186113
C           -1.69982855918738        0.36462013155191       -0.00029428513217
H            3.88238065862303        0.68639224603340        0.00058879697703
H            1.28734649810121        3.72611295823640        0.00089008260180
H           -0.79240698128594        2.72550110746139        0.00033442816851
H            0.80420111285984       -2.57259905406514       -0.00037134708813
H           -1.58516957188649       -3.07298365649826       -0.00079492569065
H           -4.21723085902333       -1.83988495054369       -0.00117713798759
H           -4.99526476130439        0.69553613847935       -0.00096814506855
H           -2.89049500540035        2.25207501733364       -0.00023356454842
