30
 energy: -54.148320419144 gnorm: 0.000703967777 xtb: 6.6.1 (8d0f1dd)
N           -5.22441021687144        0.94530433660315       -0.08693446359232
C           -4.14638623212981        0.54040649666990       -0.05824172762126
C           -2.87927910304019       -0.02520988541868       -0.03871452801260
C           -2.61531260422579       -1.43014599217139       -0.02890001442841
N           -3.56102467090760       -2.39656445261481        0.03695239818413
N           -1.31265351968632       -1.71122896913979       -0.03026488838224
C           -0.66018299477355       -0.50927483199299       -0.03434704993849
C           -1.61557569499420        0.57683697830781       -0.04706425476585
N           -1.25478760523263        1.85706264902143       -0.09591090708489
C            0.03143232619801        2.12698231002951       -0.06534120362574
N            0.32294801225129        3.47456097653701       -0.09751563199482
C            1.08170227291981        1.14647657358930        0.04062804611295
C            2.38350991513386        1.61779098254901        0.26563198326999
C            3.58864030796063        0.96302109051106        0.25058738700466
C            3.81443204034479       -0.40020541891550       -0.04037705629356
N            5.09359436117830       -0.79419771598128       -0.23454627124796
N            2.94634679078470       -1.39466403959096       -0.09683507210120
C            1.62715291670624       -1.36760789779656        0.02133602660681
N            1.06819557883985       -2.56702580662283        0.11787921945476
C            0.70092372274048       -0.24305215750445       -0.00622301871454
H           -4.51353025947135       -2.13354631174887       -0.14848331949441
H           -3.28382667450958       -3.34377309163572       -0.15136664286532
H            1.12675043851482        3.77585590096645       -0.62261135425120
H           -0.50746207303893        4.02704434866850       -0.25512322049826
H            2.45145520194150        2.67675997997108        0.48000468828285
H            4.47622254684454        1.55688673787035        0.42740716886096
H            5.84954048422476       -0.13478178936894       -0.24490419600747
H            5.26604815361036       -1.75857882148222       -0.45688250253932
H            1.67121717798106       -3.37235964707675        0.10392817945129
H            0.02746198500659       -2.60928229703278        0.10784055633146
