26
 energy: -42.433155710171 gnorm: 0.000605172436 xtb: 6.6.1 (8d0f1dd)
N           -4.27809320408497       -0.50063568587653       -0.62243417211409
C           -3.08080871936009       -0.05223678439934       -0.15722295781011
C           -3.00495403389910        1.29879813368406        0.25376360578024
C           -1.84144452640920        1.99796504908674        0.49461318643710
C           -0.52880083568669        1.57856478698671        0.35260364383642
C           -0.01861953080130        0.29560519735105        0.08237742240096
C           -0.84019340540405       -0.91504923249660        0.08634806586603
C           -0.21325547726445       -2.16831052328390        0.23624187441638
C            1.15339316316308       -2.33011517504538        0.24236329558687
C            1.95694376938698       -1.21398397286281        0.06119671148995
C            3.34173177697924       -1.00220715699473       -0.03878748223210
N            3.63539349478357        0.28348991297299       -0.23379905335163
C            2.47035634577293        0.96143366331053       -0.24604963187670
N            2.47823681453546        2.31151455796049       -0.43780856047292
C            1.35906544336829        0.09511506169683       -0.04629664786805
N           -2.15468073198688       -0.98362622090217       -0.09839864300118
H           -5.10706435321573        0.05593214262878       -0.52251547890645
H           -4.37016861525581       -1.48736397417950       -0.78699385904973
H           -3.94406873357469        1.82618618298039        0.35677583414683
H           -1.96894179743742        3.03159200813111        0.79600724377890
H            0.22254740696574        2.32614899785801        0.56922959442446
H           -0.86692861648293       -3.02376394722385        0.31170646800351
H            1.59088071681545       -3.31266505262177        0.34951708393367
H            4.12483450031547       -1.73662072510486        0.01346256493910
H            1.67217589602988        2.71950980573733       -0.88488224897573
H            3.37316560554623        2.66896895320611       -0.73697662298205
