26
 energy: -47.241028483250 gnorm: 0.000645404787 xtb: 6.6.1 (8d0f1dd)
N            1.94300725441595       -3.36162985927947       -0.39836892575729
C            2.08053335324476       -2.21875382643851       -0.32494719148763
C            2.22366317418299       -0.84152644229707       -0.21331277426842
C            3.41663914015544       -0.12273790058457       -0.38968525009962
N            3.26016393542152        1.19660251628296       -0.30076364646306
C            1.95710590440974        1.41028933724246       -0.11618040589840
N            1.37484503330387        2.59966064867992       -0.00258516750270
C            0.08119048184888        2.61875390988167        0.13083806683366
C           -0.76162964803590        1.47469160343835        0.21260929431400
C           -2.15074689248664        1.70972655020066        0.25186739995728
N           -3.13500245996616        0.94064772412448       -0.09828964706756
C           -3.12052732399701       -0.38063719470631       -0.28668476896821
N           -4.20842788962531       -0.85541153968532       -0.92223901646771
C           -2.19594491622424       -1.28332587127871        0.26319292701112
C           -0.88277954544501       -1.01808622572393        0.61516419054119
N           -0.20818854466068       -1.93927913666533        1.31717439116843
C           -0.15013988892070        0.18093917453387        0.22708361494713
C            1.21573627579236        0.14883728442849       -0.02477241516385
H            4.38751067842330       -0.54531086068973       -0.57849771450904
H           -0.37638022817812        3.59934280402654        0.15207871646546
H           -2.46253723996156        2.72568624914207        0.48018897490263
H           -4.89776162323449       -0.19950174551620       -1.24543317150743
H           -4.34024457400240       -1.83796682039884       -1.07646800642303
H           -2.53455905515285       -2.30354442295450        0.39719256158874
H           -0.60045848140268       -2.85455059321782        1.46219623587626
H            0.78392554839492       -1.84113240544525        1.45880497737786
