32
 energy: -59.171601474319 gnorm: 0.000571459596 xtb: 6.6.1 (8d0f1dd)
N            5.52712248517533        1.11797905962486       -0.53281844305648
C            4.49409251931707        0.64631287302930       -0.35366224003004
C            3.23467183090716        0.05212820381192       -0.12282255157277
C            2.16597341703821        0.94233748293662       -0.09973095889029
C            0.79341197842162        0.78428169330343        0.06465610459277
C            0.00609663269503        1.97484549307060        0.13337584363774
N            0.59169960957266        3.21210253704356        0.22686682242641
C           -1.39668659802616        1.92671987332803        0.04787488681003
C           -2.14201958843041        3.12006341050655        0.10593044539167
N           -2.70285082907283        4.12004303126131        0.17352095892686
C           -2.04732726852972        0.69700099319995       -0.06306845070194
N           -3.35812060644056        0.46791074924173       -0.15795727450772
C           -3.49790208744189       -0.86787243892360       -0.17457365779468
N           -4.70684637152675       -1.44273482178296       -0.25341066862883
C           -2.24703214205893       -1.55145192271214       -0.08209157169358
C           -2.12209826136723       -2.93177723108142       -0.08519527342796
N           -2.07381434809408       -4.08455895396663       -0.09278001186909
C           -1.27293128932236       -0.53132831885853       -0.01521476581776
C            0.12317852483770       -0.51960426307541        0.08492980821675
C            0.76482166227148       -1.75886199550543        0.21139917783686
C            2.08778691904985       -2.13324005382662        0.26459773948361
C            3.23866267459240       -1.35430669302029        0.09630433723135
N            4.43266246465814       -1.97790246313017        0.13130604257500
H            2.48789569066825        1.96296851413196       -0.27662176568343
H            1.47594231556385        3.31347707230118        0.69297967876420
H           -0.04369124600081        3.98746499312655        0.33693118673260
H           -4.79371675600834       -2.44060996819768       -0.32259683530059
H           -5.51086116023712       -0.85219002523163       -0.36667151393129
H            0.07490076015941       -2.59068981542008        0.28827296018188
H            2.27111079050920       -3.19081339469792        0.40968616160902
H            4.48072423798974       -2.97354179777663        0.25782890866526
H            5.28422655742957       -1.46349963051007       -0.02243047927589
