34
 energy: -63.405464956434 gnorm: 0.000822383936 xtb: 6.6.1 (8d0f1dd)
N           -5.82110344136573       -0.63568026768272       -1.06011441949822
C           -4.71829646315455       -0.47967800720970       -0.77564197744844
C           -3.38780873509974       -0.20826896890819       -0.44478273156481
C           -2.34370582183088       -1.12035901493384       -0.31652836932389
C           -1.15966107129221       -0.41082709887872       -0.03068103684439
C           -1.50801414608515        0.99176670905035        0.02582288247264
C           -2.88668352707833        1.10905288934846       -0.23587734113867
N           -3.64004516864535        2.24538433593897       -0.27947349333869
C           -0.54474300380180        1.93465158788850        0.38180256445377
N           -0.84855487404135        3.22558977740915        0.65329069027867
C            0.80621330711167        1.49945481587234        0.37929697569545
C            1.76409064624572        2.45676131088825        0.76214079241359
N            2.43678745783270        3.28351321338121        1.19545459940609
C            1.18724782577968        0.16606142882722        0.12209681390372
C            2.54023970006847       -0.05252987485930       -0.25020330099782
C            3.19997955848262        1.06864121112986       -0.80460507913541
N            3.77618911402521        1.88553670252369       -1.37418099154592
C            3.32589516096878       -1.22797355941637       -0.24387886500514
N            4.60533200506558       -1.13695881810865       -0.67210651207323
C            2.91025744670304       -2.48509175721858        0.23015114036236
C            1.64637046377923       -2.88685759220090        0.57857841932653
C            0.42500805845740       -2.20924496318832        0.49102531136052
C           -0.64865758926562       -3.02586277379277        0.91866976164251
N           -1.43214267625290       -3.75806209300126        1.32977584691734
C            0.15645977863791       -0.85734711863584        0.16523828251620
H           -2.44165858978416       -2.17703449255930       -0.46985516960531
H           -3.18801320305747        3.09410936450399       -0.58234556184846
H           -4.58405685414643        2.12358300484346       -0.61717464193155
H           -0.11011033238801        3.81882030044595        1.00084447223842
H           -1.78806079091974        3.44673790706163        0.93654115642336
H            4.97951957431123       -0.25933349447288       -0.99108780995756
H            5.20081136557051       -1.94490979051957       -0.65686505350716
H            3.69098628959215       -3.23119359595861        0.30310814348379
H            1.56262943897864       -3.90735387196753        0.93507856406910
