25
 energy: -42.730431937577 gnorm: 0.000505803276 xtb: 6.6.1 (8d0f1dd)
N            3.79039748602329        1.36131547224897        0.72911872684503
C            2.69636873059303        0.84551569547648        0.14196346345476
N            1.81416753181085        1.75017995346669       -0.30444385027054
C            0.55240375887092        1.50991998059555       -0.50677826555441
C           -0.22661782401781        0.37578832261960       -0.18049345118831
C            0.28281185428739       -0.95281491226403        0.01754367557873
C           -0.59273714238586       -1.99372797656324        0.34891063539660
C           -1.95622614632027       -1.80393324626446        0.50263082900683
C           -2.50171455034579       -0.55856703853264        0.24950652964048
C           -3.78763429317722        0.00184822641539        0.24743685045487
C           -3.60809858285136        1.33133282718154       -0.09928928043162
N           -2.31875311262108        1.66735455791432       -0.31207045522444
C           -1.62010653960058        0.54683668828357       -0.11710587870142
C            1.66584040770912       -1.24505517445567       -0.27010187637119
N            1.98380275211890       -2.47954313995064       -0.70420283578314
N            2.70271660735657       -0.45935474431084       -0.06695264568657
H            4.54739939520039        0.75683459617072        0.99126445003696
H            3.88353503983867        2.35929460018316        0.78535424858366
H           -0.01264079599682        2.35458130238716       -0.88867600212238
H           -0.18563884785992       -2.97799762006853        0.53730848535546
H           -2.58414693469661       -2.63394993176995        0.79787246171556
H           -4.71521039918107       -0.49132362815801        0.46573080721926
H           -4.37140970329446        2.08272266759860       -0.20903369097233
H            1.27105225331517       -3.14384934585423       -0.94334594666867
H            2.94694305232479       -2.67812299114923       -0.91174029671297
