32
 energy: -59.168666610538 gnorm: 0.000757734266 xtb: 6.6.1 (8d0f1dd)
N            4.13129883558569        2.46832886408753       -0.20152852092027
C            3.39788074820290        1.58715479165053       -0.12144943963945
C            2.52627727634636        0.48247505728657       -0.02193484953988
C            3.08689637907514       -0.68836071183775        0.56955752607641
N            4.23157815646656       -0.53694954731094        1.26891619179391
C            2.63681626888990       -1.97999192443292        0.31355810057397
C            1.44106565588997       -2.40307351903134       -0.26026815131956
N            1.39798547491156       -3.67172605734694       -0.71743038950056
C            0.21525137443726       -1.65176894982855       -0.24101085200927
C           -0.99530921538104       -2.38700413374836       -0.12635070280482
N           -2.19049618690669       -1.87533492257320       -0.03959900933972
C           -2.29369791092864       -0.55453894221981       -0.00023057508510
C           -3.45029006949179        0.24173286667789        0.14989844406617
C           -4.76757328147750       -0.21560592872971        0.23018776171432
N           -5.85913361569751       -0.57052278895417        0.28762404747033
C           -3.03507027708321        1.57390013688335        0.24052115492270
C           -1.64136433690962        1.64898963446193        0.10951962752842
C           -0.90381897672744        2.82155551634917        0.25316512505573
N           -0.27957395952428        3.78406124206557        0.36430324888832
C           -1.14213371630127        0.32643340017818       -0.06752121030213
C            0.12527039526421       -0.23603464222968       -0.26006259339444
C            1.24989769507335        0.63711926309543       -0.56181625761554
N            1.00905666378172        1.67435712653299       -1.37425107948870
H            4.72763507439913       -1.33855318433728        1.61424724774361
H            4.64793742936903        0.37266308840285        1.37394512961758
H            3.34254226941125       -2.76771418802971        0.55248552574593
H            2.19880063546478       -4.27132051025875       -0.62296638467498
H            0.55775851162396       -4.05100436602431       -1.11513696542185
H           -0.96889709148141       -3.46551708361898       -0.04246849392384
H           -3.68231888523050        2.41843690779874        0.39550604534973
H            1.68212415755624        2.42140233119330       -1.45654711528311
H            0.06321164769142        1.87741925654838       -1.65528708038371
