31
 energy: -53.853308640035 gnorm: 0.000711240930 xtb: 6.6.1 (8d0f1dd)
N            3.74098002053906        2.83424905327336       -0.31156590460564
C            3.09197914593546        1.88900074805236       -0.19597440410240
C            2.32436733182375        0.71614735941640       -0.06347239667854
C            3.08275641273031       -0.46886745529031        0.09799627856424
N            4.43339436673278       -0.34355767162135        0.11366451411520
C            2.56840936007045       -1.75727540012494        0.25603158009228
C            1.26360564055468       -2.19237966339994        0.17923453840878
C            0.06067701908939       -1.51838258819049       -0.02176579238647
C           -1.11960870215463       -2.34681797208959       -0.14278198343308
N           -0.99442167378455       -3.72259002681987       -0.25127892503721
N           -2.35740504938080       -1.92242000227269       -0.10886490460564
C           -2.54993258660764       -0.60225289867143       -0.00222940701721
C           -3.70996945982577        0.14636737127154        0.05242839343772
C           -3.28268778395954        1.49126389949614        0.05593073610136
N           -4.08218095166158        2.58919836831095        0.15774280709011
N           -1.94818132860054        1.61660199094691        0.00531789781354
C           -1.44845081157787        0.34943710034073       -0.01551774580458
C           -0.12768188976356       -0.08402750392925       -0.03058484115171
C            0.92120348418280        0.91504756394158       -0.05204100890919
N            0.49525868413064        2.17480166695045       -0.09381973507086
H            5.01093377026936       -1.15082345012694        0.26211000706347
H            4.86671805901568        0.56008519031511        0.03697685574207
H            3.31325865340233       -2.52406483419151        0.43327091604542
H            1.15713841883208       -3.25982276806166        0.32208929606004
H           -1.89865074508787       -4.15294021539481       -0.38602539424591
H           -0.28809264111624       -4.07158914394741       -0.87950551920513
H           -4.72254338953315       -0.20074782519276        0.08055381025741
H           -5.05184554255190        2.47518613906192       -0.08239635792517
H           -3.66178574036339        3.47442202776332       -0.07058884200352
H            1.15748367175140        2.93353063051751       -0.11330459949908
H           -0.53980722619068        2.32234131536661       -0.06171288831019
