26
 energy: -47.225058318145 gnorm: 0.000564892239 xtb: 6.6.1 (8d0f1dd)
N            5.31564862473577        0.06762268946407       -0.21249529691759
C            4.19234811568441       -0.16712965954955       -0.14454979439228
C            2.81125031741601       -0.43611978667356       -0.05684426644562
C            2.41420109839229       -1.74136110505686       -0.31323099004583
N            1.28441021996431       -2.32282468046878        0.02874442837407
C            0.13946291966026       -1.78134033692107        0.30416490805154
C           -0.30579124679073       -0.46655994609188        0.04112427579418
C            0.55400511074799        0.70728403912522       -0.00915849204742
C           -0.08061454159905        1.95539599830719       -0.21867292045727
N           -1.36467135459142        2.17702318730904       -0.34461244949118
C           -2.18356366543424        1.13659575793682       -0.19656888523070
C           -3.56195893008810        1.02177356779167       -0.19274164210528
C           -3.81244634377447       -0.36042894230464       -0.04547287820762
N           -5.02192742491286       -0.95242258426932        0.05789703007068
N           -2.68612695697892       -1.10576633804277        0.03965691774471
C           -1.67641431767008       -0.23209584426670       -0.02226185899666
C            1.95204023554075        0.68092334470355        0.22295834544666
N            2.57176125638165        1.80408855875046        0.63254404451503
H            3.15410321459924       -2.42076827732144       -0.72455446344204
H           -0.61422326823893       -2.46197689604536        0.68585496771576
H            0.52640630698855        2.83975196155700       -0.37941388186063
H           -4.29397182518231        1.79880321140215       -0.27564822359821
H           -5.84479319822991       -0.43700149085854       -0.19745569129428
H           -5.04878922028931       -1.95611704115267        0.01517613231834
H            3.57782669781689        1.83498351315468        0.67583307091305
H            2.05232609965164        2.64922208062129        0.79154229298676
