29
 energy: -50.403494162949 gnorm: 0.000669379507 xtb: 6.6.1 (8d0f1dd)
N            2.41065335620985        3.39227307134642        0.05958964007960
C            2.04708632892518        2.30044355598079        0.04246754789843
C            1.72271775863506        0.92755555737867        0.01998586429558
C            2.83989859404736        0.04016440352543       -0.05087478439297
N            4.06247797444252        0.60419951876969       -0.17900794776909
N            2.87625352494604       -1.27423331538759       -0.00571510092106
C            1.84403018819561       -2.11723332603715        0.07070910585132
N            2.25292918304375       -3.41068564201104        0.19919352299889
C            0.47139189849761       -1.87973492333673        0.04216673604247
C           -0.24974195364640       -0.68114976090183        0.01353628597736
C            0.34231419788696        0.65293030573933        0.04916549281054
N           -0.39778462110549        1.77013809224971        0.10041326210920
C           -1.71546050922942        1.71642725437109        0.08767402899656
C           -2.40357183038348        0.52567260328061        0.00643339054576
C           -3.78438951091695        0.18473615704831       -0.04585470324374
N           -4.82340809196758        1.05762087058368        0.01529010643523
C           -3.87055754364854       -1.21486379975741       -0.10854940679841
C           -2.59407366807276       -1.75367900511117       -0.09643461752726
C           -1.65171486780755       -0.70494944405377       -0.02816097378285
H            4.86260599745845       -0.00238713063311       -0.17574150185783
H            4.17701156271610        1.60246939020706       -0.16566112647556
H            1.60006249479055       -4.16487195305493        0.09138657902293
H            3.23426838959015       -3.59528943589554        0.09028592043531
H           -0.13760431067556       -2.77480321506896        0.05953853707949
H           -2.21191311545950        2.67945289911757        0.13966026212839
H           -4.63721923754952        2.03387708819003       -0.13536018346901
H           -5.74237133168460        0.72515142432211       -0.22137188512718
H           -4.78809743288073       -1.77313202686218       -0.15961435888008
H           -2.37541704205721       -2.80528210799904       -0.14116850566199
