33
 energy: -58.895022103812 gnorm: 0.000795451220 xtb: 6.6.1 (8d0f1dd)
N           -6.08474375419045        1.20036907045851        0.09048405080316
C           -4.97761032544519        0.89101602627576        0.06514313989943
C           -3.61650553520295        0.52902227948835        0.03565888564009
C           -3.34464928538145       -0.83768765580388        0.08838823573968
C           -2.14370552326821       -1.50422504233319        0.07427118408832
C           -0.81255083265602       -1.04343867582293        0.01859303314993
C            0.18615780941434       -2.04120283661073       -0.01184407411618
C           -0.16500953373010       -3.40241297203738       -0.04784209811630
N           -0.35930879612932       -4.53610165842870       -0.09166311045399
C            1.57749492729821       -1.76599347014332       -0.03904261388697
N            2.47669345887269       -2.78033239001532       -0.08996774796965
C            1.96470545367672       -0.42995265910210        0.01842528114203
C            3.23935134004966        0.17112655489069        0.06605697744190
N            4.46225263926683       -0.45239940432944        0.13094105513661
C            3.04162507551223        1.57264787271069        0.00246465429344
C            4.07426981802549        2.51169982962626        0.02990256967148
N            4.95242035162538        3.25373275204691        0.06692135595707
C            1.66874546185969        1.83729457261071       -0.04978209451619
C            0.97249189619264        0.62068975797611       -0.02440426539008
C           -0.41615924525647        0.35284260810361       -0.02412669741203
C           -1.28413664535767        1.44703200873110       -0.06491639653224
C           -2.67041191623375        1.58524342602083       -0.04519453173301
N           -3.16349311512927        2.84738634514194       -0.10888159822362
H           -4.22565238896659       -1.46677928491224        0.14573237747314
H           -2.23289941845869       -2.58362559338988        0.11591516939635
H            2.12508797398130       -3.71132330446861       -0.25560611856634
H            3.39986101314932       -2.57434319605214       -0.43278983908429
H            4.51435009250878       -1.27868183849560        0.70873769360283
H            5.23895136287337        0.18062382146174        0.26574296353299
H            1.26127171894046        2.83016720854653       -0.09153035070093
H           -0.77297038427218        2.40007609509914       -0.11921077179416
H           -2.54400337627643        3.63671269556204       -0.14049395692313
H           -4.15521457299243        3.00915415259424       -0.07356187834949
