27
 energy: -52.548427753460 gnorm: 0.000564286999 xtb: 6.6.1 (8d0f1dd)
N            3.67066724240125        3.55450954465317       -0.34946265103678
C            3.02603801809147        2.61398028378504       -0.24426580685759
C            2.24249547845807        1.43640321245356       -0.11471308686245
C            2.93898609264871        0.22736079196494       -0.20045780083973
C            2.45977625355549       -1.05269187202767        0.00694069700270
C            3.46856570127953       -2.05208251325777       -0.00501442032672
N            4.28339050658682       -2.85936193671686       -0.01132747707995
C            1.13148132935067       -1.52335812180357        0.23919236228963
N            1.03905798270235       -2.80708398492368        0.61764904461798
C           -0.08027823808188       -0.77835111852074        0.06423726806057
C           -1.26812652695464       -1.50478684065622       -0.10162050980248
C           -2.54161311706617       -0.93516510315776       -0.15090496611145
C           -3.66427552381430       -1.76569821804645       -0.36384744208019
N           -4.54958840265750       -2.47442051694608       -0.52900678194284
C           -2.66098273244705        0.43939806412425        0.02795660174729
N           -3.70858004565881        1.27369590268084        0.06376225131755
C           -3.14742992508414        2.47305411204382        0.20698660816442
N           -1.80787221108829        2.51376381702325        0.25760736042272
C           -1.44558465219630        1.22890994174396        0.15925483695357
C           -0.15311230353804        0.67071748155437        0.11585279039422
C            0.88209689254302        1.60843883538954        0.09231299939618
H            4.00458555776922        0.30419893581692       -0.38887941832215
H            1.87088038542238       -3.37024759964857        0.70609989361508
H            0.15479147452910       -3.22364850106805        0.85096274133192
H           -1.22567786544211       -2.57286514241258       -0.26330173964733
H           -3.73745726575810        3.36738593576338        0.27723361686793
H            0.52866062504926        2.63096490258913        0.17651075142809
