29
 energy: -50.419678442675 gnorm: 0.000929921465 xtb: 6.6.1 (8d0f1dd)
N           -0.83719864688355        3.94717022714657        0.63193053953108
C           -0.85388232947250        2.80734781606309        0.46294212201499
C           -0.93063272605713        1.42220710865137        0.26359472461590
C           -2.21712058350467        0.84931193680444        0.16512533745081
N           -3.31752699445468        1.61719002731304        0.29878076902254
C           -2.30581883240136       -0.52650176309737       -0.09870762237395
C           -3.39855671199301       -1.38303785563879       -0.26414567015564
C           -2.91019779785801       -2.68287435454418       -0.44422693726926
C           -1.52945148783552       -2.66452864297745       -0.38005388391752
C           -1.11567092142932       -1.32932378963435       -0.16884110737312
C            0.16275795061694       -0.80106579656060        0.02543455651409
N            1.16232571160515       -1.65037816858937        0.18355754191014
C            2.45669244142408       -1.42852115577834        0.29790572544372
N            3.16054364518610       -2.46788885050346        0.80434704701376
N            3.20856630679670       -0.39635273368566       -0.08803599662953
C            2.75282407495331        0.82538242317140       -0.29694990009334
N            3.68376363096829        1.69350883484288       -0.75897236185467
C            1.45811244753594        1.34582581139642       -0.05814875711592
C            0.26387310117549        0.66836923418865        0.11854276982045
H           -4.22778258050073        1.20965946663800        0.19375137401033
H           -3.23251819408205        2.60351415370893        0.47411477474148
H           -4.43876336781475       -1.10723999774641       -0.25122726401095
H           -3.52071314182511       -3.55368587438832       -0.60378053986636
H           -0.86818224668249       -3.50377192470188       -0.48043181546947
H            2.68247057881143       -3.34074342342020        0.93975527291469
H            4.16180563648765       -2.44876277493458        0.73616752211061
H            4.63013220977737        1.36832918801024       -0.84523139192772
H            3.48820143157605        2.67545262672983       -0.82212562039081
H            1.38788417658415        2.42714583303541       -0.11040352876620
