28
 energy: -51.487311232524 gnorm: 0.000361160508 xtb: 6.6.1 (8d0f1dd)
N           -5.25281166422553       -1.55139886343305       -0.01903425301619
C           -4.23193196355346       -1.02299742716157       -0.01458881597136
C           -2.99728173580071       -0.34131540818523       -0.00984516570726
C           -1.85375729623523       -1.13899248757442       -0.00972812174610
C           -0.50494464026481       -0.79649922036871       -0.00289861103308
C            0.42222494316139       -1.85867794329041       -0.00401942944677
C            1.79199808388735       -1.67009647247674        0.00329376376762
C            2.66965621657030       -2.77382790174162        0.00407079666015
N            3.39460337448149       -3.66360902493555        0.00617200949652
C            2.31102361109726       -0.36105999243531        0.01241664965361
C            3.56965746269166        0.19952838532408        0.02497046579694
C            3.34616636522248        1.60276991501894        0.03419092074351
N            4.29315349699796        2.56096556925956        0.01008794521232
N            2.04054546607075        1.92698537840975        0.02810623672118
C            1.37395261157256        0.76339572184779        0.01350745444650
C           -0.01101281872685        0.57701959074075        0.00489449856248
C           -0.79611361551948        1.74469712951701        0.00117757452204
N           -2.07887943860857        1.97403533664714       -0.00246465578738
C           -3.07322813841030        1.08089409070333       -0.00470155737047
N           -4.28753357083746        1.65528473975228       -0.00288838117811
H           -2.06067024627108       -2.20451284721356       -0.01519437512480
H            0.04141460291791       -2.87071512447343       -0.01037324068548
H            4.52022697344036       -0.29570961451527        0.02708991300056
H            3.99940437757473        3.51337972563514        0.13728645507103
H            5.25165105198202        2.31826847663324        0.18415037731309
H           -0.20203231359655        2.65548994985154        0.00209373056785
H           -5.13169240045221        1.10750162777824       -0.00610325447495
H           -4.32844343866601        2.66040017118596       -0.00113627669344
