27
 energy: -46.963241836424 gnorm: 0.000742637022 xtb: 6.6.1 (8d0f1dd)
N            2.91055783730119       -2.77370172154801       -0.19352781583849
C            2.39025176886509       -1.75385643313546       -0.07052289423425
C            1.82132149441745       -0.47754740515478        0.09063753898247
C            2.72393190815078        0.60899381389147       -0.12333152597450
N            3.90509120492708        0.34877444748000       -0.72516993251686
N            2.58368988498219        1.86164308652634        0.28407143937669
C            1.46825792664053        2.39171773698979        0.73816084557479
N            0.22575057134417        2.05724076085028        0.55167663658092
C           -0.29531746937589        0.88663554416633        0.21450726887543
C            0.42083179261649       -0.40764926887822        0.29025237931953
C           -0.31543853102528       -1.57973374748768        0.38361290039827
C           -1.70646140235712       -1.62207562741158        0.22151528495728
N           -2.36473080296732       -2.79446636485915        0.31694784013626
C           -2.37707098241668       -0.42264797308936       -0.08216256464362
C           -3.72079220323270       -0.12048677600436       -0.31395653000170
C           -3.83654878463357        1.26859268859447       -0.48158116058345
C           -2.59386698886289        1.85001793169008       -0.33827572810991
C           -1.65180087061698        0.81891363305712       -0.09065585032353
H            4.58057219486403        1.09235919819440       -0.76169497197915
H            4.19144823689276       -0.59547582420117       -0.91941452371434
H            1.60892681282062        3.33869520563369        1.25379289374228
H            0.21044475514271       -2.51517124563629        0.51950212039237
H           -3.35182595568492       -2.83325815988801        0.14280565782065
H           -1.86556020115353       -3.64494164794718        0.50662961921542
H           -4.54006783491508       -0.81732903434964       -0.34753795769416
H           -4.75505975551099        1.78810062496904       -0.68641683371193
H           -2.35595350181175        2.89403737404639       -0.40734158484725
