28
 energy: -51.472057315413 gnorm: 0.000693356998 xtb: 6.6.1 (8d0f1dd)
N           -4.51522475495525       -1.02460539885242        0.72723509164863
C           -3.50118384315429       -0.53120162765665        0.51386201667104
C           -2.26373858781764        0.10485287571591        0.28969866031142
C           -2.15617475689889        1.48277163526197        0.42594082089159
C           -0.95459664406693        2.08249993404728        0.10334843705715
C           -0.55289835288428        3.42864942458512        0.00765394435565
N            0.71118122142913        3.54296322037913       -0.36932402305725
C            1.22051924990263        2.29526105598844       -0.49249204733144
N            2.45227589023754        2.17097564385606       -1.01372396538164
C            0.22854387008132        1.29907355327527       -0.19011484726980
C            0.17669941825160       -0.09240154338155       -0.14040292737096
C            1.30710208348980       -0.91605347999290        0.12960243908952
C            2.42466212334136       -0.24708380160899        0.64539460206399
N            3.37238617662189        0.27344562745063        1.04792740722838
C            1.44653241309886       -2.33060853389896        0.07946874262145
N            2.60464185284374       -2.86020993320639        0.53934007545971
C            0.54083002262943       -3.21812068603904       -0.52108200778318
C           -0.72377000034340       -2.89314134776418       -0.97449325521302
N           -1.45865928678663       -1.86347211161006       -0.65348451881145
C           -1.16587552491220       -0.68584038269729       -0.15196399560195
H           -3.01672360820301        2.06889225553567        0.71315211114302
H           -1.15045124060319        4.30174520419489        0.19541487039572
H            2.93659881481507        3.04834689289514       -1.13064791126501
H            3.01861493860341        1.35978516439691       -0.82449859327728
H            3.31719127728520       -2.27937247987802        0.94655670258962
H            2.74778168002778       -3.85320564822045        0.50746833888109
H            0.87801744134572       -4.23709616265841       -0.65377839564342
H           -1.24806941918004       -3.61980665041648       -1.58663179560218
