28
 energy: -45.877881226051 gnorm: 0.000652839637 xtb: 6.6.1 (8d0f1dd)
N           -3.69347798221588        1.62751728943751        0.39029109520822
C           -2.84766279038406        0.58436354101206        0.14724131139946
C           -1.47465529035695        0.87766094120791        0.12327282464104
C           -0.36311313316427        0.05223745472397       -0.03461429766968
C           -0.41180219141423       -1.40564916209704       -0.07288277452762
C           -1.61084207742493       -2.13764376161856       -0.25063775917771
C           -2.91895212673482       -1.71868067881771       -0.32458475713689
N           -3.49292288407368       -0.54634565488273       -0.11624020420571
C            0.76822281574185       -2.13433060705510        0.02795172999741
C            2.04050906397417       -1.55915688970234        0.12004557464681
N            3.14650646000597       -2.33579106094677        0.21570985239905
C            2.12237307403006       -0.16578514888956        0.03963796614160
C            3.17873546107328        0.75318911613582        0.02892226371236
N            2.74199583150556        2.00484709157951       -0.11896436198119
C            1.39895188046012        1.95094427814528       -0.19227616776359
N            0.68419550708260        3.11543007505826       -0.35598878557840
C            0.92127720848045        0.62152976188228       -0.07721991005336
H           -3.34532285816236        2.47833062198643        0.79362944799255
H           -4.66395135261362        1.39699057495702        0.51453080471202
H           -1.24468497219186        1.91770633097779        0.31312860475636
H           -1.46852139555733       -3.20540404652437       -0.37305790277280
H           -3.65399977323080       -2.48966742414159       -0.54515167574789
H            0.70199309002600       -3.21445870842446        0.03489668667892
H            4.03626682779147       -1.90420413962494        0.38649888851329
H            3.05285971064060       -3.32168350463719        0.38389268441369
H            4.23440082919576        0.56040805023060        0.10491054579970
H           -0.10756769773851        3.05413057543320       -0.98071098446321
H            1.29483417715527        3.89625212099463       -0.55596568673455
