26
 energy: -47.236974605600 gnorm: 0.000573488806 xtb: 6.6.1 (8d0f1dd)
N           -5.41967238146365       -0.30709456474339       -0.52772716395748
C           -4.30672775372898       -0.06622044710009       -0.35841374909504
C           -2.94337056549818        0.18770286695208       -0.14324867473973
C           -2.51068709146030        1.51035899733066       -0.18976641599079
C           -1.24743357385766        2.01882424690169        0.02200392923227
C           -0.01782009649235        1.34787269748754        0.16280399154232
N            1.03041931007632        2.16688246231666        0.31834182281845
C            2.27030044998212        1.71683665467413        0.25820086769853
C            2.54864775193931        0.39744344732105       -0.02560734307261
C            3.71480352751659       -0.40785299000520       -0.18728743005907
N            4.99502244618176       -0.00180679691959       -0.20238633252417
N            3.38934122537138       -1.70539907552861       -0.36227185419947
C            2.06205986158413       -1.79096646856215       -0.31742359400935
C            1.45304625282911       -0.53575200449167       -0.11891732168752
C            0.13312077139212       -0.10426176840099        0.04894316636447
N           -0.81294110166501       -1.03355573804273        0.14851813954397
C           -2.11688618075946       -0.94837594111746        0.17520872195964
N           -2.74578658898014       -2.09950871906459        0.49010374832065
H           -3.29052919090767        2.23835579291731       -0.38408468882499
H           -1.14588310522867        3.09602520724672        0.01281012896464
H            3.04175542696498        2.45957159937425        0.42686710195350
H            5.71310728540992       -0.70426421803431       -0.23601412088250
H            5.23160352111852        0.94014192706134        0.05133597554289
H            1.57375791002712       -2.74081162647680       -0.42697358661205
H           -3.74720554332275       -2.17604337037351        0.44454420050731
H           -2.18255005843026       -2.91590960121673        0.65234971550649
