27
 energy: -50.975371895982 gnorm: 0.000782723083 xtb: 6.6.1 (8d0f1dd)
N           -4.96747616116641        1.91950948872577        0.95932602654497
C           -3.93614892586269        1.48112969661052        0.70029917332900
C           -2.71155121933630        0.88150072305047        0.39951441301360
C           -1.48424292997938        1.50832211149067        0.20640514347409
C           -0.51987731465767        0.51278036813201       -0.03255938787346
C           -1.19080798029206       -0.77072724947628       -0.00855988230637
C           -0.47497465985531       -1.90447927366541       -0.43903146086275
N           -1.08214313333904       -3.07778473766231       -0.73581294895459
N            0.85342587194895       -1.89468457239278       -0.50626042020592
C            1.51441594756461       -0.77021210212895       -0.29751304780748
N            2.75379307524729       -0.83539523130210        0.12874508145593
C            3.62461203664203        0.15558107806041        0.28143486292988
N            4.59126007884276       -0.06168565936476        1.19102639237413
N            3.75325055655073        1.27252948756975       -0.44551347659934
C            2.71964742338936        1.79835498009177       -1.06516311345565
N            1.44216732578610        1.62334899736333       -0.85207179986433
C            0.82917534608972        0.55888950691035       -0.37406991800253
C           -2.54270010051023       -0.53405588542664        0.26847564050842
N           -3.55361990301643       -1.45072554225352        0.35307485626934
H           -1.30085430777333        2.56496458720434        0.24351089624638
H           -0.49653063829422       -3.77800253606791       -1.16213208668658
H           -2.05932552167524       -3.06946814522493       -0.97398447939589
H            4.64442501841858       -0.95977074372107        1.63776859495228
H            5.36536645551389        0.57696394281631        1.23215306917312
H            2.95852393875178        2.60081557656282       -1.75737668773268
H           -4.43152687850388       -1.09355947619177        0.70132691450058
H           -3.30986353288187       -2.37082140821050        0.68532089317528
