30
 energy: -55.726016551563 gnorm: 0.000428289054 xtb: 6.6.1 (8d0f1dd)
N           -5.10205398619776       -0.31714244498878        0.20465385008263
C           -3.98674473415043       -0.58774998595310        0.14979502135609
C           -2.63977648404969       -0.95258769142900        0.07754698864619
C           -2.15760832331853       -2.27451021944890        0.04684611431141
C           -0.76635287914810       -2.26262136631983       -0.02962599771583
C            0.00497791644194       -3.42413941779928       -0.05934323067959
N            0.61548519346322       -4.40079649686571       -0.07940206912193
C           -0.33191508431327       -0.89803512426231       -0.04823534272339
C           -1.52913147570676       -0.09283352259368        0.02611356811184
C           -1.43303300117220        1.30375502666562        0.05960910381326
C           -2.58007082479307        2.11319544457569        0.19212782331959
N           -3.46186541890446        2.83654802669893        0.32339277281821
C           -0.17720075719813        1.92001408292997       -0.01711652367211
N           -0.11048441544501        3.29148187145510       -0.01135650656324
C            1.00948950576792        1.13602198707306       -0.13979427205871
C            2.20167679052601        1.82138668367790       -0.44351311300268
N            3.45529182412382        1.51458228340765       -0.26040482611572
C            3.99657198207504        0.35492964738152        0.06814986559130
N            5.26664692260353        0.41310181803025        0.50209149495225
C            3.39373034581464       -0.92145364540507       -0.12034651520735
C            2.06100087576530       -1.17320708973011       -0.21793059876189
C            0.93173562086090       -0.31135391090776       -0.10458519647929
H           -2.77051274740142       -3.15710845075312        0.07625737657069
H            0.71137293350796        3.73975991729379        0.35380013715583
H           -0.97901735459063        3.77076214764065        0.17226224621886
H            2.08741539183459        2.82180385968582       -0.85258960191239
H            5.78621012970395       -0.42125780310169        0.70738960505816
H            5.70909896633240        1.31167992552149        0.59168412797589
H            4.06755083366810       -1.76706550896400       -0.15930307568559
H            1.80002637249985       -2.21632309901575       -0.33627348368359
