26
 energy: -43.240250300869 gnorm: 0.000879132616 xtb: 6.6.1 (8d0f1dd)
N            0.28560995027323       -3.93382618201450       -0.00022255736423
C            0.12224857919591       -2.79445104901513       -0.00164902404224
C           -0.18752988058553       -1.42288176920930       -0.00092306543101
C           -1.56972096734008       -1.10772444976346       -0.00070630449590
N           -2.49964822349661       -2.07814293334043       -0.00125730858356
C           -1.91357419496729        0.24687349165318       -0.00041500856290
C           -3.12343609594399        0.94409826066761       -0.00011012186458
N           -2.91985393773124        2.26857085989102        0.00025351491915
C           -1.60576555598751        2.47274091772273        0.00018594264780
C           -0.88494449767602        1.26089447249070       -0.00024330648111
C            0.48715075678493        0.95634656511543       -0.00044643000953
C            1.39152138997708        2.03115258860837       -0.00016460090881
C            2.77081095593740        2.08048737364008       -0.00018187517712
C            3.68010799957625        1.03337704892352       -0.00063703688823
C            3.38831198134640       -0.32367944880898       -0.00118178369450
C            2.16112082693810       -0.95264528335727       -0.00126900656893
C            0.84379475179949       -0.45279723760440       -0.00084543460237
H           -3.47381547302868       -1.83628691855253        0.00024620167527
H           -2.22969631655771       -3.04751811761403       -0.00027371073509
H           -4.12506324857374        0.55311229324271       -0.00016028751732
H           -1.22820575867783        3.47884473752272        0.00047400139558
H            0.90525521811962        2.99811176071829        0.00018382180595
H            3.19947337391322        3.07537961823559        0.00022230646236
H            4.72818507838577        1.30185588832554       -0.00056807738177
H            4.24434696941626       -0.98739261320981       -0.00155020108145
H            2.21504077260257       -2.03620484826765       -0.00169583791542
