29
 energy: -51.198673522163 gnorm: 0.000754775679 xtb: 6.6.1 (8d0f1dd)
N            6.06450897679266       -1.43845436246184       -0.22907569640169
C            5.00587567529385       -1.00058520299633       -0.14206738971204
C            3.70832257736931       -0.46372535223153       -0.03567358190106
C            3.56411305690043        0.91932779422835       -0.25363648479824
C            2.43102085486307        1.67912709426054       -0.14689025658182
C            1.07996328843334        1.28907922294508        0.05241114465917
C            0.12494000262815        2.29302007739602        0.10576134177609
C           -1.26045158410790        2.06452494838791        0.11356168933336
N           -2.12457565350161        3.11360521988180        0.18933033046245
C           -1.69835055670846        0.74436548096686       -0.01509121401827
C           -2.97714046382541        0.16280055860397       -0.11031003567826
N           -4.18714318516210        0.79738026939873       -0.19398335592203
C           -2.80427772060830       -1.25256427591856       -0.07107079124692
C           -3.86829078188508       -2.15478680811361       -0.15144780067480
N           -4.78344597201739       -2.84640646403717       -0.23205381926285
C           -1.44565504202896       -1.54458401034270        0.02155815716182
C           -0.73483840715413       -0.33019924053278        0.04059786252699
C            0.64319137778156       -0.10858074363466        0.13147109427432
N            1.39309105242755       -1.18757963804481        0.35505772076664
C            2.68218221507430       -1.34702151464159        0.34527326130069
H            4.48123547315150        1.44751603023140       -0.48905880765415
H            2.56684794254652        2.74388669022496       -0.29926455751319
H            0.46133727381880        3.32149043133280        0.13090173263252
H           -3.05901876056030        2.92833511521055        0.51364220237165
H           -1.74034966356996        4.01008876578061        0.44186560415999
H           -4.97198510683912        0.18849619129959       -0.37843890955598
H           -4.21444427960342        1.67079298887871       -0.69688358697367
H           -1.00930794027336       -2.52358337244962        0.06040674106009
H            2.99396059446340       -2.34694753201879        0.63810467241061
