36
 energy: -61.241122559191 gnorm: 0.000868522619 xtb: 6.6.1 (8d0f1dd)
N            2.52269128617481       -4.16009365685298       -0.23422860100319
C            1.91149129935561       -3.19353654036043       -0.10591419406876
C            1.13913670902426       -2.02903634409976        0.03774049439383
C           -0.25211531422928       -2.11794802539195        0.09494206641306
N           -0.83405884033915       -3.40869124623704       -0.00972532402039
C           -1.06010071601990       -0.95776524623655        0.23397651792414
C           -2.49410593024230       -1.10972257611249        0.29580126978828
N           -2.99074793106425       -2.23521566035849        0.85482683348090
C           -3.42113998117199       -0.23869060070443       -0.27068531586904
C           -3.31075463470354        1.12497422900585       -0.53827110196671
N           -4.35444893896553        1.73695653619243       -1.16441781352778
C           -2.32335022672239        1.94947411338841        0.01833527430253
C           -1.13183313561659        1.55932472554670        0.58970870848323
N           -0.52461439166415        2.40636248388995        1.44749778253906
C           -0.42352641779965        0.32270755434053        0.29492428365067
C            0.95901804670332        0.41127799488440        0.12495143799480
C            1.85468387610249        1.51238689831344       -0.04702683713917
C            1.56029842821757        2.85386073686906       -0.21458070591339
N            1.34487374065721        3.97965711007967       -0.36907665786505
C            3.16036819355242        0.98297983621139       -0.20231287781635
N            4.29345009067993        1.74392563748390       -0.32987974204687
C            3.10511638796562       -0.41168386887577       -0.13082021322617
C            1.77346000217152       -0.77585435277297        0.02916071012652
H           -0.11234716274594       -4.11360004169160       -0.11876296890932
H           -1.49215823753167       -3.47786952225422       -0.77743428189703
H           -3.97488224563057       -2.42874434789805        0.79300526405835
H           -2.35314031404087       -2.97256062049490        1.11782262339266
H           -4.40275136443278       -0.66450438814171       -0.44984875210216
H           -4.25673915085300        2.69570435459112       -1.44676462976030
H           -5.03811622259643        1.17948841058017       -1.64399039697930
H           -2.56197631155701        3.00436851048999        0.07273769644515
H            0.42152295993445        2.20956769488996        1.73223860380642
H           -0.80150386835615        3.37433731927914        1.46546779325265
H            5.09992424079153        1.28338962455178       -0.71931701698154
H            4.15624081547311        2.69690522608291       -0.62915149368864
H            3.94002857107900       -1.08080810078808       -0.22375800297149
