27
 energy: -47.760919960372 gnorm: 0.000914581628 xtb: 6.6.1 (8d0f1dd)
N            5.64445590298409        0.15666740961020       -0.00085751960332
C            4.52928202582676       -0.12230413113087        0.00127868720880
C            3.16071598159628       -0.40627348557292        0.00038883029306
C            2.55898762778567       -1.66241903021626        0.00053308289832
C            1.15854484999013       -1.48882782645948        0.00033026292121
C            0.09512496229005       -2.36571339102250        0.00054340531123
C           -1.19485870750694       -1.84951964806725        0.00031161823151
C           -1.49218859621963       -0.48495533626778       -0.00018848523358
C           -2.87778234502706       -0.10930664530559       -0.00033287669165
C           -3.83429497848516       -1.15144100119965        0.00119985191409
N           -4.65746661988993       -1.95297691026327       -0.00055611897088
C           -3.45162725584694        1.15532840138069       -0.00075072089340
C           -2.82669098348911        2.39403573637115       -0.00114936326846
C           -1.45405081973266        2.63162776882556       -0.00113969563798
N           -0.42601428040901        1.82459507336656       -0.00083226751927
C           -0.39399801129747        0.47326372514216       -0.00043791256309
C            0.88744896569708       -0.07255260291159       -0.00015922845058
C            2.14225419909721        0.59801834849342       -0.00020343423698
N            2.28871404376855        1.92091269271345       -0.00055339285026
H            3.07836566950481       -2.60265205984062        0.00096870564156
H            0.24757178536387       -3.43450722028197        0.00091082559847
H           -2.02139204962410       -2.54555705207903        0.00048044271115
H           -4.53618025985241        1.16743470161445       -0.00070064977780
H           -3.46593537231640        3.26543823171470       -0.00141407762923
H           -1.15525555018860        3.67894091029914       -0.00138444066104
H            3.19773312790819        2.35138358386941       -0.00054860738509
H            1.41780058387262        2.44509855441778       -0.00082708705685
