33
 energy: -63.695701612335 gnorm: 0.000960812514 xtb: 6.6.1 (8d0f1dd)
N           -6.28401999308291       -1.20714794852537        0.45854172340200
C           -5.26189875088573       -0.69346048562076        0.34848368792269
C           -3.99086876083820       -0.13019852056970        0.20276582995979
C           -3.66586987538891        1.21409521806559        0.06328450602548
C           -2.25989813900057        1.32794732512668       -0.04937040178508
C           -1.42348493399503        2.39226150264403       -0.30770038285801
C           -0.04508710269882        2.16560726466769       -0.35155275822985
C            0.75014101990773        3.26664625544561       -0.73997619845206
N            1.30357970659546        4.17480532199587       -1.17270652821584
C            0.54416261882493        0.89447040026528       -0.12162096357141
C            1.92097872554017        0.83760868535732        0.19844763018741
C            2.51690144392738        2.03701696205641        0.65015735044624
N            3.06955708465359        2.91936715685314        1.13984038307094
C            2.80110000714813       -0.27799764439918        0.24725600055970
N            4.08582308046902       -0.03986524762591        0.58209186777442
C            2.46407654280504       -1.61139106651708       -0.06992610322803
C            3.51712977957409       -2.54023129818279       -0.10438137105356
N            4.36857356765918       -3.31480647794580       -0.13944424473952
C            1.16668314294894       -2.13287770499493       -0.33420226070003
N            1.09147620801907       -3.43723899206851       -0.68796295340813
N           -0.00792155262591       -1.55471915091533       -0.19928890632760
C           -0.33717543423060       -0.26620924966454       -0.08733265612091
C           -1.70196137295833        0.00839651663852        0.03182524045441
C           -2.78433204472625       -0.90137653886458        0.17301708113588
N           -2.65327286929985       -2.22331242194040        0.25734105588347
H           -4.36660002189236        2.02772607662135        0.03553552414081
H           -1.80205012728072        3.38984395046198       -0.47352512656794
H            4.75041686599776       -0.79493562639750        0.60422466921866
H            4.39832898892294        0.89591141990675        0.78066045601783
H            0.19831588724140       -3.82449959573794       -0.93413931478071
H            1.92401144754816       -3.98004361474990       -0.83854987539097
H           -3.45328409962039       -2.82882341235812        0.32962272834099
H           -1.70269334995651       -2.56710347802951        0.17922923138876
