30
 energy: -54.930842509428 gnorm: 0.000754335787 xtb: 6.6.1 (8d0f1dd)
N           -5.19183557776356        1.47340331933858       -0.39708516524915
C           -4.21814819455771        0.87605631073251       -0.26203299038839
C           -3.03361343027391        0.13032656415300       -0.08788077904184
C           -1.86437532619885        0.89770332968385       -0.07108115217852
C           -0.52350428999895        0.57500092826049        0.05659117281086
C            0.42040626865394        1.65466111839274        0.10902989960813
N            0.00049222711584        2.95884107439430        0.18738331380732
C            1.80335415469783        1.42829734780257        0.02432724837560
C            2.69785209918657        2.51325090444842        0.07093401164605
N            3.39304709361848        3.42645061707121        0.12693453938124
C            2.28701011103031        0.11843611177548       -0.06646860351378
N            3.52142201026011       -0.36172992152853       -0.14573184012359
C            3.33200655519987       -1.70764446084534       -0.14014708873200
N            4.37453642264693       -2.55034636863753       -0.17764942773090
N            2.06184307579553       -2.13421913258982       -0.05982163667806
C            1.34882692232785       -0.99247695179717       -0.01482086125272
C           -0.02835764349070       -0.80485819710827        0.06838989682814
C           -0.79822102815038       -1.97298896080182        0.15687904659804
C           -2.15068511498400       -2.19579578002322        0.19946876031181
C           -3.19994698925734       -1.26886596076585        0.07705289801802
N           -4.45911590640091       -1.74891957469536        0.10386184752543
H           -2.07815790867623        1.95165236435960       -0.21154654622766
H            0.73187312454701        3.64477258405609        0.29644756474474
H           -0.86532407371838        3.17957586611829        0.64741191224436
H            4.19901641204562       -3.52938804624170       -0.31027908261247
H            5.28147824028934       -2.16604705209384       -0.37118261982228
H           -0.17360015872813       -2.85808098306537        0.20027086270876
H           -2.46518805608094       -3.22723072970737        0.30264996058953
H           -5.24526309994396       -1.13054268075835       -0.01113899945360
H           -4.62468072559406       -2.73545341702322        0.19727197940781
