24
 energy: -44.577693710509 gnorm: 0.000745977469 xtb: 6.6.1 (8d0f1dd)
N            4.21892954341831       -1.05865188856053        0.67979656152951
C            3.09083431504915       -1.01204897393183        0.47971645988038
C            1.69603988580027       -0.98253517832298        0.26327697343523
C            0.95947468180275       -2.16651540654192        0.31971534750230
C           -0.38670848069657       -2.14643715086679        0.01386621975240
C           -1.34831161149614       -3.16989226056774       -0.06560569546309
C           -2.57492094093871       -2.59048217531923       -0.38779017902144
C           -2.42928069110771       -1.21165826726720       -0.48474913062921
C           -1.07562457427345       -0.88962706544119       -0.23222975280655
C           -0.38743160853126        0.31504629511887       -0.14360798668218
C           -1.00647607483979        1.54641433626030        0.18662184230681
C           -2.37083953956762        1.53732586323798        0.56317133292596
N           -3.47002940713803        1.61057484983865        0.88386308743171
C           -0.37269883314567        2.78838235958958        0.40088235534198
N            0.75822706022541        3.22693273779815       -0.08348483344896
C            1.63292189184838        2.47217919384034       -0.72591169748891
N            1.86897917102838        1.21012452832438       -0.53805460490156
C            1.09171210853513        0.24092322060227       -0.10428388832863
H            1.46631809896532       -3.09441832452260        0.54375609346109
H           -1.16220207759335       -4.21442000328166        0.10197116972562
H           -3.49444520435969       -3.12578345457181       -0.53633807690965
H           -3.20471763781901       -0.51840045288050       -0.74915584089725
H           -0.93306199055987        3.52870477431833        0.96462597416832
H            2.33435620769371        2.99773887724644       -1.36457147508358
