25
 energy: -43.507038773283 gnorm: 0.000657852505 xtb: 6.6.1 (8d0f1dd)
N            5.46332070581065        0.60120394892082       -0.00678329136133
C            4.37152268870385        0.24884220545229       -0.00220922297286
C            3.02122679231881       -0.18064332737655        0.00082647478435
C            2.81820690939084       -1.55176278827415        0.00309702207694
C            1.60658486734362       -2.24472142506143        0.00592761658067
C            0.33045184488385       -1.73041207321663        0.00324907532728
C           -0.13216364227345       -0.40296972113663       -0.00036101276260
C            0.69038841126448        0.81615610889100        0.00381758361519
C            0.00533973746933        2.07158798657918        0.00607975005986
N           -1.28125428847929        2.25907275178717        0.00405581807833
C           -2.05660718582404        1.16586191395162       -0.00016022449139
C           -3.42866736034000        1.01205267891975       -0.00750099365236
C           -3.63934350348651       -0.39391607775440       -0.01901401928035
N           -4.83897722877115       -1.01598358894594        0.01810824955762
N           -2.49936605128123       -1.10123930950258       -0.01883419215149
C           -1.50514452835819       -0.19058970414961       -0.00487158911214
C            2.06573820165912        0.86174856566775        0.00331802645676
H            3.71707932066312       -2.15785235079185        0.00315629668661
H            1.68777911811903       -3.32397713227029        0.00946165794204
H           -0.48483630815736       -2.44474909317127        0.00405297991293
H            0.60280349536942        2.97572462103719        0.00818829700860
H           -4.18398450391849        1.77124610001176       -0.00504791358104
H           -5.66556671203820       -0.49154288060624       -0.20767401735251
H           -4.84627651496810       -2.00785813261019       -0.14658124808957
H            2.49993524559992        1.85703491464914        0.00524355652047
