27
 energy: -46.950242277026 gnorm: 0.000669292697 xtb: 6.6.1 (8d0f1dd)
N            5.24640813331879        1.07920423539559        0.39265380160526
C            4.22887771228815        0.56238984538753        0.24656354601262
C            2.96495945006774       -0.01159379543751        0.09632216658450
C            2.66950890020979       -1.34073922823053       -0.20756274848337
C            1.27344581959570       -1.48155321480901       -0.21690226762943
C            0.42109535849724       -2.53484560844199       -0.50961765095625
N           -0.88421703275735       -2.45360945528761       -0.35144995419637
C           -1.45687262200392       -1.30934477544215        0.02674980041806
N           -2.68760615283095       -1.43240767450619        0.47832844637630
C           -3.62378555005844       -0.54736675707314        0.68778911610650
C           -3.73039293791158        0.74973154661317        0.21401970363404
C           -2.67188075934404        1.53959344356095       -0.26443349857046
N           -2.97185194024608        2.80861586746970       -0.65979930381570
C           -1.31326067252905        1.19810433309933       -0.21263987156589
C           -0.70854781834131       -0.03504345108479        0.01866788035081
C            0.68610501507819       -0.18583408026247        0.06627767505400
C            1.74803432406924        0.71585631394028        0.26690113037691
N            1.68033601913650        2.04820482270023        0.56045641465762
H            3.38892440913492       -2.11594958675970       -0.39398162870282
H            0.79505299107428       -3.49472534970263       -0.84413694548699
H           -4.47713117498402       -0.94898016152085        1.22763067955185
H           -4.70293109644324        1.22148559593250        0.26558249755351
H           -3.93106829324854        3.06053935279322       -0.81878380094803
H           -2.26462696598716        3.37294052552505       -1.09633576174503
H           -0.63401184124538        1.99917899553545       -0.48349519027635
H            0.85812804710704        2.36818726639141        1.04833741147248
H            2.54756503885475        2.47268953181409        0.85568479642291
