29
 energy: -45.599532514361 gnorm: 0.000493574165 xtb: 6.6.1 (8d0f1dd)
N           -4.21794622067795        1.23930929958855        0.05080417313057
C           -2.96288547479329        0.67396418621796        0.04549407541793
C           -2.90803865769897       -0.72100067384103        0.04005367642409
C           -1.76818217274076       -1.52371722884560       -0.04447554403810
N           -1.97737010658764       -2.88690231383909       -0.05051355866095
N           -0.48548766670796       -1.21130447341457       -0.05561185899741
C            0.11541015128509       -0.01195658069680       -0.03513876545384
C           -0.50290212561974        1.31377723806499       -0.07069430799406
C            0.33717279793240        2.44075103425261       -0.12720258316343
C            1.71690033668532        2.37916783739055       -0.10935482338014
C            2.32885341431866        1.14184388514344       -0.03153987644384
C            3.67462149432450        0.72143858448586        0.04426936310630
C            3.70866192909661       -0.66013219846312        0.12820613314355
C            2.39080826820142       -1.15201206836653        0.09611582605055
N            1.96314332184822       -2.43376549881083        0.11401141341461
C            1.50773297576400       -0.03666302592425       -0.00317532101146
C           -1.88360778392980        1.55236744260714       -0.03091050293371
H           -4.98945740150952        0.66531316675856        0.34514403140319
H           -4.28898186009091        2.21677967001930        0.27649109563423
H           -3.85696656258194       -1.24218858335951        0.07773642724129
H           -1.19025724950477       -3.44559866832517       -0.33620726527108
H           -2.88149681817748       -3.22432244580531       -0.33332992684801
H           -0.13769468579355        3.41193013579752       -0.17380210379183
H            2.30011115867528        3.28915026938906       -0.14207737124354
H            4.53039769809277        1.37284558720399        0.04210644338026
H            4.59255959064838       -1.26821698767702        0.20450021444051
H            0.95541800063457       -2.50574715292334        0.21953440619331
H            2.57452148718455       -3.16055324875388        0.44478592091377
H           -2.16050554387748        2.60188392402653       -0.04678315956276
