33
 energy: -58.078889332850 gnorm: 0.000549341574 xtb: 6.6.1 (8d0f1dd)
N            4.24409015307356        2.76145164531934        0.03879265482018
C            3.50632113007642        1.87822820498689        0.01874967005632
C            2.61087690749185        0.79326953065481       -0.01388619010159
C            3.15362761634799       -0.44627344267616       -0.46030321227942
N            4.35390088007850       -0.40698756942253       -1.08865944556521
C            2.60672467641222       -1.68147485934847       -0.15302405231288
C            1.33715681823505       -2.00723462031113        0.33381980358395
N            1.20986142772966       -3.22229898407926        0.90237217331082
C            0.15423494682485       -1.20697348741462        0.18064967889565
C           -1.11474454277176       -1.85970546463995        0.03384578029489
N           -1.21567798491602       -3.26791562658450       -0.06053261358484
N           -2.26723864753163       -1.24556955045045       -0.01819529255305
C           -2.28855485963502        0.08000349525829       -0.01696646686438
C           -3.38247127614492        0.95121815590922       -0.11243753186926
C           -4.72857117931214        0.59860416744180       -0.15995154536481
N           -5.84607983987638        0.32410899468407       -0.19159967125657
C           -2.85727162788015        2.26222913209570       -0.19665277953965
C           -1.48061670798742        2.22902748754894       -0.10700726450038
C           -1.07284930400506        0.88116598781774        0.02667952820297
C            0.15027959516314        0.22027420687132        0.19210634014071
C            1.32003419798203        1.03555178180322        0.46417515600685
N            1.10606466062931        2.16519045937962        1.15622925196113
H            4.85314224459198       -1.25879488374165       -1.27103433203719
H            4.84889062959131        0.46432586387507       -1.17410997930074
H            3.27812897700882       -2.52446953677718       -0.27675696543321
H            1.98782845675304       -3.85863430935486        0.90093949613878
H            0.27942064990185       -3.57085901092739        1.09594298256343
H           -0.70075379367376       -3.64661709032155       -0.84807921776595
H           -2.20032416790330       -3.49612466884158       -0.15396388694762
H           -3.45617180990065        3.14793719163702       -0.31568078556889
H           -0.84692198574085        3.09227857014097       -0.21681763960389
H            1.84678815117074        2.83393089638709        1.28906947702119
H            0.16987467601673        2.39210963097962        1.45009561465191
