26
 energy: -47.233539207079 gnorm: 0.000546844629 xtb: 6.6.1 (8d0f1dd)
N           -5.79052528542920        0.59004214113981        0.30645709992162
C           -4.67150778538973        0.36160612063554        0.18223809662789
C           -3.29876519290949        0.08826284423074        0.02887937497758
C           -2.85817981328744       -1.21320109964480        0.31453154080239
C           -1.60040063359518       -1.73913974757216        0.15850831893989
C           -0.37385526929100       -1.08503165012055       -0.11233294941349
N            0.67597876798636       -1.88688132349403       -0.19823089445123
C            1.92960659436640       -1.41666314416824       -0.17842729519852
N            2.90902463485031       -2.33769869448377       -0.34273991471925
C            2.17288205493431       -0.06646034736412        0.06771336009492
C            3.30296006121555        0.76413065527596        0.22788328335907
N            4.61280998691224        0.40047906198171        0.30958689513585
N            2.94938724566562        2.07027125930305        0.25243827570756
C            1.63179209924492        2.12990757565762        0.12038388340119
C            1.05382019829849        0.84548045129087        0.01552219980432
C           -0.24600441911875        0.37668017524949       -0.17313632261098
N           -1.20455384448830        1.25312359334708       -0.47352331043389
C           -2.49201398790693        1.13218160404081       -0.47607796933941
H           -3.63118537600748       -1.90144801769007        0.63826025326667
H           -1.48119803909285       -2.79720931564095        0.35275401421026
H            3.82681642828960       -2.02670680786471       -0.61069234146355
H            2.61158608534587       -3.24969613455794       -0.65000603624720
H            5.23034839532790        1.16113617434173        0.55109205367115
H            4.82519458152784       -0.48450635534240        0.74230592071764
H            1.12030775894552        3.07326556895902        0.11326926568989
H           -3.01232644619429        2.00224797039053       -0.87103679095117
