29
 energy: -46.399795542184 gnorm: 0.000516024837 xtb: 6.6.1 (8d0f1dd)
N            4.92667289090341       -0.77118440561004        0.11719513783703
C            3.80642854897249       -0.50989724865777        0.04938151736012
C            2.43980667925286       -0.18780974675873       -0.00603292865880
C            2.12261315828910        1.18942930866319       -0.01738660252744
N            3.17343020272639        2.05954256882204       -0.04569862349421
C            0.85089595436279        1.76113658829004       -0.03102985577986
C           -0.44224556730517        1.23926939375208       -0.02530420384479
C           -1.48853832837410        2.18384683918228       -0.02390571000157
C           -2.82016641216215        1.83897046633444       -0.00869158848483
C           -3.17360992283888        0.49764977761349        0.00539062398342
C           -4.42001319155851       -0.15036941895128        0.02559432521594
C           -4.18734099132464       -1.52253899251932        0.03163803681708
C           -2.81735336912978       -1.75731857024800        0.01448239563546
C           -2.14682197967518       -0.51358689914390       -0.00209009359471
C           -0.77922802982311       -0.18488217701174       -0.02092729827126
C            0.14742300490178       -1.22678627178537       -0.04182138462258
C            1.53913194344554       -1.27925286905475       -0.04019751619059
N            2.09435154482027       -2.52389711373007       -0.09589565023892
H            4.11234411614390        1.71952750032673        0.06924346126995
H            3.00748165354824        3.04235246828296        0.07112251086675
H            0.88083198114241        2.84691411185047       -0.04076801908122
H           -1.21972234004869        3.23095364540701       -0.03309206200020
H           -3.58042268002686        2.60780591030368       -0.00619896139000
H           -5.37942423610234        0.33408588285389        0.03517294264942
H           -4.94627565075923       -2.28476329652402        0.04721584798298
H           -2.36917448444391       -2.73498861480408        0.01627742747491
H           -0.30824117531307       -2.20961104620346       -0.05850654457139
H            1.50797420277958       -3.33308726267561       -0.00387117078398
H            3.08752420879681       -2.64059295240413        0.00467607794326
