26
 energy: -46.437776632688 gnorm: 0.000891011870 xtb: 6.6.1 (8d0f1dd)
N            4.15316880485242        0.95598978174262       -1.04247178713007
C            3.20799942533367        0.37393227269120       -0.26441191330916
C            3.51894028332542       -0.83422903955992        0.40314583571246
C            2.54371344191862       -1.68012906969006        0.88891326112948
N            1.25819723693293       -1.68525323239516        0.60848068728539
C            0.48376027399862       -0.71754175965348        0.18784586502391
C            0.89086837070586        0.72303888364010        0.24048815746618
N            2.09969479356963        1.07618202926214       -0.12888647467229
N            0.02115327823614        1.67724887611107        0.52061984408822
C           -1.28801834741810        1.43497370957427        0.41725054336262
N           -2.11677669987225        2.44702359865406        0.77367260038058
C           -1.75628233461541        0.22750888406160       -0.11239772284602
C           -3.01610530700587       -0.31127505940878       -0.43708092121194
N           -4.22358485074593        0.33749793167299       -0.46649142766160
N           -2.93518286283954       -1.63554607735301       -0.68975208370010
C           -1.66212878415861       -1.99078618022666       -0.53216416861972
C           -0.84962995009387       -0.89625492107642       -0.19035193656696
H            3.97184292025715        1.88137129588158       -1.39077853629624
H            5.09060798495803        0.59878162912144       -1.06087336277344
H            4.55787877947878       -1.12083292436000        0.49061388748964
H            2.85299899142798       -2.53886260792711        1.47786317039214
H           -3.08094659734527        2.23034591381840        0.96072367433980
H           -1.69236016795161        3.20754903337869        1.27928798210243
H           -4.96041172566126       -0.22844141010633       -0.86231227007445
H           -4.20689129251070        1.28949286179330       -0.80109966690697
H           -1.35608962447618       -3.00926984634900       -0.68009836410252
