34
 energy: -57.790754703445 gnorm: 0.000660600230 xtb: 6.6.1 (8d0f1dd)
N           -4.28095301012677       -2.09843257754698       -0.34753577249774
C           -3.32154507562516       -1.47610341508361       -0.21186448459552
C           -2.14637714502001       -0.71712720044914       -0.06336482470418
C           -2.26206621900763        0.64872236511442       -0.37890839725712
N           -3.37563004845701        1.07835706469662       -1.01735315532191
C           -1.33857178280934        1.61662190451351        0.07931428951711
C           -1.81466954676023        2.93960839699803        0.13467763931677
N           -2.20997620100767        4.01968762491482        0.17819228993193
C           -0.02016584456045        1.40540937016677        0.51631950044794
N            0.55772767154382        2.38734912356239        1.22907996585141
C            0.81701399738729        0.27792943352688        0.17807118215167
C            0.35144860505205       -1.07583522116253        0.17952958743238
C            1.30035726020653       -2.12624153451119       -0.00597293134647
N            0.87367644337448       -3.48819530782357       -0.04423167615014
C            2.64361084612260       -1.86637246755421       -0.16897103179028
C            3.11765296322175       -0.56447280484393       -0.20670689917312
C            4.38084793254685       -0.02823981500458       -0.43090127408577
C            4.24675223572837        1.36114642255991       -0.47184016822723
C            2.92614388243813        1.71895723438810       -0.23434004797660
C            2.17605347568279        0.53928430174603       -0.05203432005756
C           -1.01838485116725       -1.42619181921459        0.42354332769219
N           -1.27755455026069       -2.57309520939533        1.08030223866211
H           -4.13127675335864        0.43709029314189       -1.19071940804346
H           -3.55827330212303        2.06527848073014       -1.08753975022156
H            1.52884255513872        2.29789637421834        1.48057937438226
H            0.08056068171765        3.26027969785298        1.38365445529998
H            0.19399252626214       -3.65505428907641       -0.77970485817640
H            1.67214338003313       -4.09364527910317       -0.19569331887289
H            3.33028139422621       -2.69215285630080       -0.30633905362009
H            5.28712804182657       -0.58441834721619       -0.58329707821696
H            5.04661842071387        2.05656260358668       -0.66029356188052
H            2.55706892274519        2.72897472482880       -0.27923098068011
H           -2.22277546395441       -2.92058050502599        1.11702113632924
H           -0.50919121702956       -3.21784970263436        1.22617426508052
