23
 energy: -40.055782474159 gnorm: 0.000446463856 xtb: 6.6.1 (8d0f1dd)
N           -1.65626440557117        3.68903720264913       -0.00227803656722
C           -1.03356019464658        2.72635613862659       -0.00225439982721
C           -0.20046404669202        1.58325501781354       -0.00138195192526
C            1.17918308807282        1.76300123912775       -0.00198030791283
C            1.98898066094343        0.64498838163391       -0.00071030189357
C            3.37796464670827        0.43286829805159       -0.00056284460796
N            3.66962552527173       -0.87073768372210        0.00063696111730
C            2.52093088251437       -1.54718600138180        0.00113653579001
C            1.40429381238912       -0.68436065527493        0.00033124439745
C            0.02117909494215       -0.89419960198808        0.00002001121485
C           -0.46724788028097       -2.21475896578948       -0.00263276809846
C           -1.76469143732790       -2.68540894131725       -0.00398291176407
C           -2.94483802440366       -1.95116564174838       -0.00063510227015
C           -3.05824344648519       -0.56083366839920        0.00453546748810
N           -2.15061269797678        0.37828773448235        0.00372964087419
C           -0.82267309940459        0.30570694020295        0.00055139244654
H            1.59301396211388        2.76141981719831       -0.00302763958144
H            4.15784376838317        1.17131478098982       -0.00132064958685
H            2.54008384146284       -2.62179182190868        0.00228521734731
H            0.30566521457554       -2.97249398247049       -0.00479653326076
H           -1.87494323023367       -3.76308171053891       -0.00724122061163
H           -3.87180526535443       -2.50825973593301       -0.00149054860637
H           -4.06723068530031       -0.15579168710362        0.00912032413805
