26
 energy: -43.223048132007 gnorm: 0.000801586276 xtb: 6.6.1 (8d0f1dd)
N           -5.48156347159535       -0.68218493810768       -0.01497731871761
C           -4.39598734762375       -0.31064872590389       -0.00880872893203
C           -3.05609642291290        0.14866031593710       -0.00440520699094
C           -2.88916722510516        1.53715618161107       -0.00155290957297
C           -1.69978827135977        2.24185912876518        0.00327459744950
C           -0.39992631782107        1.75786323043542        0.00426175848453
C            0.11015819969521        0.45662557063843        0.00133590949598
C           -0.69167147315562       -0.77943193790551        0.00111061388828
C           -0.00054394721663       -2.01151669287157        0.00273601827094
N            1.30209418420445       -2.18047891318565        0.00432983212814
C            2.05625657358539       -1.09319629980068        0.00367181954293
C            3.44475739547623       -0.99306766085945       -0.00176874454364
C            3.77169985002821        0.37175233123305       -0.01249739129245
N            5.03456474783205        0.88303455431720        0.03490073743446
C            2.58833380652743        1.13981177360693       -0.00984673607870
C            1.49937988450738        0.26990600775579       -0.00025612366651
C           -2.07985763485929       -0.85200546379759       -0.00204612854358
H           -3.80300469440546        2.11914000404450       -0.00277386939642
H           -1.79600317353703        3.32051119982561        0.00618415770634
H            0.36502666086955        2.52418431443558        0.00811469396302
H           -0.57860514017673       -2.92782358452585        0.00216674195643
H            4.13751552142193       -1.81173330543046        0.00028852475306
H            5.16146190781421        1.85012527081808       -0.21111932378830
H            5.79483168675061        0.26311623089056       -0.18764781388480
H            2.56862148450506        2.21477175295289       -0.01572370789746
H           -2.47977846724896       -1.86168521677907       -0.00300479046822
