30
 energy: -54.926996139966 gnorm: 0.000393288724 xtb: 6.6.1 (8d0f1dd)
N            5.09465636126130       -1.05140041254496        0.00064211301635
C            3.96365642804176       -0.83623211911966        0.00122951081205
C            2.57870816728120       -0.58136157951635        0.00025291388813
C            1.74620826733101       -1.72760206071768        0.00043162894556
N            2.37038466598808       -2.93267994968604        0.00039290410307
C            0.34987302455051       -1.76233334748273        0.00025013507540
C           -0.61517070278714       -0.76592778187558        0.00017539870730
C           -0.37123733318300        0.67591619130279        0.00013247428533
N           -1.35665715584258        1.56981953628847        0.00045950280051
C           -2.64343615793988        1.22078366558185        0.00068255709143
N           -3.52470560897723        2.23106118886718        0.00116390835754
C           -3.01787552416997       -0.13221504973557        0.00042523274416
C           -4.21667161386197       -0.85095611065192        0.00039395849229
N           -3.99087391013444       -2.17279744704655        0.00014435464019
C           -2.67253516164150       -2.35228239895068        0.00003313682097
C           -1.97784632855384       -1.12427608278386        0.00018039216308
C            0.89573332532007        1.29764928427191       -0.00035717624983
C            0.79673450930658        2.71183851074543       -0.00043880815501
N            0.79655700703761        3.86129197759075       -0.00106210234054
C            2.21040711098406        0.78298379812715       -0.00041323471825
N            3.21699971512700        1.68741413847781       -0.00096872585579
H            1.83170264113058       -3.77930382713159        0.00190663760378
H            3.37354468615031       -2.99410651799198        0.00177889841384
H           -0.05870157418097       -2.76633841176581        0.00028741473558
H           -3.17020292783990        3.17210610012026        0.00119514721781
H           -4.51232232374648        2.05481129995674        0.00114304542435
H           -5.22375754974096       -0.47401449992147        0.00051942159053
H           -2.27052684360570       -3.34934544887151       -0.00018852992121
H            4.17600834843502        1.38572822033795       -0.00079103121232
H            3.00780819026046        2.67114855222568       -0.00118528687628
