30
 energy: -54.139583001850 gnorm: 0.000523132082 xtb: 6.6.1 (8d0f1dd)
N           -1.33575209508213       -3.85365278249475       -0.11656020817371
C           -0.86163585958178       -2.80687916472179       -0.06082226804289
C           -0.19713416022092       -1.56902633568768       -0.01190376894455
C            1.22302906581368       -1.57557498161946       -0.02784239672672
N            1.89828931520601       -2.76942329742479       -0.05364983213808
C            1.85843944065373       -0.34521931138645        0.02766633133133
C            3.22684203747467        0.05735500099733        0.09136316823825
N            4.29927495837179       -0.78492991524021        0.15447274082210
C            3.29175831809124        1.45317778914747        0.05614762872824
C            1.99406983043660        1.96527765895543        0.00637216064028
N            1.56029191667923        3.22477264769530       -0.02370318189208
C            1.07485248453925        0.85464877562298        0.00618992341604
C           -0.30448067264768        0.89206104968738        0.00344673412627
N           -0.88729960069901        2.12538919509360       -0.00922578303509
C           -2.17019826546044        2.37368183292145       -0.00052748310784
N           -3.25784010734462        1.63566585455416        0.02046634151036
C           -3.26336028135152        0.29093319367815        0.03524264700548
N           -4.50195353586202       -0.23542310746200        0.05716140019524
N           -2.30252667884734       -0.61631921573841        0.03105881270708
C           -0.98334482423940       -0.40193927874816        0.01515002374023
H            2.79321247667658       -2.77324915253575       -0.51559263276657
H            1.32699744649246       -3.58446508043923       -0.22656982314051
H            5.18381079951473       -0.35119638108112        0.37077074576926
H            4.14898758371654       -1.67668522725895        0.59936172321759
H            4.19676676741757        2.03183250911807        0.08545027597641
H            2.18818456376641        4.00851675582403       -0.00966012407882
H            0.54117550635089        3.30888437740509       -0.02697810781875
H           -2.39312036523871        3.44248878465688       -0.01346593654350
H           -4.60379186644463       -1.23434864942078        0.06385577305813
H           -5.29575820048146        0.37855449880293        0.05839095922698
