32
 energy: -59.165817912665 gnorm: 0.000801642331 xtb: 6.6.1 (8d0f1dd)
N           -5.69712085418636        0.77129381326518       -0.25643939571696
C           -4.56657679866369        0.58338113200881       -0.16880807892531
C           -3.18415654137499        0.32709477425700       -0.06985200369844
C           -2.37720958016167        1.41999776557290        0.21232424950774
C           -0.99423231359625        1.53102756106007        0.28394084902586
C           -0.60844430793449        2.83535585823911        0.67885347205041
N           -0.41967155976944        3.89970873380786        1.06624786755728
C            0.02670506063402        0.55851732231667        0.07198492272048
C           -0.22093616646382       -0.87296024643476        0.07986815690972
C           -1.46761138112375       -1.49846723106515       -0.05682897808085
C           -2.76798023436757       -1.02829597666536       -0.20438529683157
N           -3.73071808054526       -1.94421955862949       -0.46253219759776
C            0.88985054690508       -1.74881724649697        0.21577371165302
C            0.68241464891287       -3.12544672285514        0.40030052852359
N            0.58517410047205       -4.26055483815220        0.56683659132535
C            2.23769991554260       -1.32295124886537        0.18368354364912
N            3.25217641476992       -2.21173809883569        0.32891435333923
C            2.45648276693768        0.02742554537060       -0.07493984112505
C            3.60423910422863        0.80468411525511       -0.32869615137060
N            4.90274659502003        0.40825432981302       -0.41470829031885
N            3.27923259626353        2.11095664260568       -0.49122609510419
C            1.97181010636113        2.21586127018397       -0.34719305747748
C            1.35479517440996        0.95900803256300       -0.09115886005084
H           -2.91492585331652        2.34746802677606        0.38413125369713
H           -1.40447257856013       -2.58115530141814       -0.10599473538072
H           -3.50433857518931       -2.92228141251857       -0.49240941665115
H           -4.69572633479370       -1.66604253558888       -0.51680460373034
H            3.01971640592363       -3.14810231723112        0.62205912190334
H            4.15590187762545       -1.86133525789431        0.59558136007994
H            5.09222826593824       -0.51192268199386       -0.77892190402299
H            5.52530568793090        1.13596893264037       -0.73300735190704
H            1.50186787667331        3.17088863681185       -0.47800645824992
