29
 energy: -51.201953863522 gnorm: 0.000354408700 xtb: 6.6.1 (8d0f1dd)
N            1.81570107450810        4.17363587988334       -0.49388634984641
C            1.39329178911043        3.11735981547391       -0.33513702547498
C            0.83648470849251        1.83503000675145       -0.16407065261013
C           -0.56422061791976        1.68810090756220       -0.11493928445615
N           -1.36134686946524        2.83505884765518       -0.14747474243946
C           -1.13623865214128        0.41498885815347        0.02587504739362
C           -2.55176686333626        0.29813448769256        0.32599686168575
N           -3.10504665821784        1.19699268007913        1.15647921304624
N           -3.38283730174284       -0.56356660158069       -0.20915476783454
C           -3.17611214128994       -1.77025913027771       -0.66130685952623
C           -2.05931964490723       -2.56432817085900       -0.39710261313620
C           -0.82133040741772       -2.09804162953890       -0.01375883774309
C           -0.32242140991505       -0.77541951402023        0.03266805622213
C            1.07530642244533       -0.59865207666628        0.08585605317484
C            2.15955258833066       -1.49748879435432        0.16226017341844
C            2.14492746095672       -2.88496452017145        0.27471693678601
N            2.17223266850639       -4.03354207683277        0.36806261032367
C            3.36064896268896       -0.74052420541077        0.11624881847335
C            3.06232650340563        0.59806245419367        0.00503100489403
C            1.66102112047352        0.72352175197476       -0.02174913028977
H           -2.22598045753049        2.74376593911329       -0.66151264651166
H           -0.84841993357508        3.66667791556754       -0.40984715766820
H           -2.56668144864163        1.97256889448387        1.50421765691490
H           -4.08844511778736        1.12907178357688        1.35690041187180
H           -4.01698112276479       -2.19631252241442       -1.19636017277800
H           -2.16258806462775       -3.62897987560838       -0.55234940683148
H           -0.06637217364653       -2.85858912553906        0.13373168679671
H            4.34361330476557       -1.17272730690591        0.16914155675377
H            3.76181087384564        1.41017097021753       -0.05875841090764
