34
 energy: -57.804887057716 gnorm: 0.000622861332 xtb: 6.6.1 (8d0f1dd)
N            5.87107918635040       -0.08831428769368       -0.27501154356570
C            4.72274554283624       -0.13525068699018       -0.20258012717086
C            3.32212852120319       -0.17383077413155       -0.10399671799161
C            2.72212005299174       -1.42237375700338       -0.27993360113488
C            1.40390667203930       -1.79300465010899       -0.18970943906867
C            0.22603233371482       -1.03183463702909       -0.02552807215416
C           -0.98503829659655       -1.75071954140532        0.04094069727474
C           -0.98227195372454       -3.15442624636424        0.01706539495965
N           -1.07331486931907       -4.30257571739235       -0.00847632930650
C           -2.26557301858910       -1.13435954595103        0.10668021747696
N           -3.39032697657509       -1.90442606984934        0.20349550085034
C           -2.30713736923474        0.24797054345868        0.06618077132751
C           -3.38988534049340        1.16792044482059        0.07394263837135
N           -4.72455009935858        0.85010202780508        0.22277217683597
C           -2.87316004705294        2.44020265553798       -0.15397470233223
C           -1.48085001041376        2.36389798576326       -0.25555185503867
N           -0.66290191892420        3.44414649106997       -0.50167783139895
C           -1.08592200246190        1.00916781366923       -0.06641876160631
C            0.18098255832711        0.41630055392534        0.02183060938273
C            1.29218683453364        1.25092439476159        0.25424591570326
C            2.66104077033384        1.04219562318231        0.22630957735464
N            3.45844373082528        2.12560856866558        0.46774729891587
H            3.41986778824398       -2.22773015957188       -0.48184964414520
H            1.22806510994530       -2.85717709474277       -0.29753034735214
H           -4.24313259624466       -1.51057412688629       -0.15816472753348
H           -3.26946275381958       -2.89582757587153        0.05697835088722
H           -5.32189458281269        1.65536268816842        0.34663931893981
H           -4.91927497495939        0.11656589187745        0.88884362946907
H           -3.45155923248193        3.34258826872777       -0.24114018097752
H           -1.15534100624360        4.25988102060647       -0.83725904907448
H            0.17694746524294        3.23991830855332       -1.02490908517596
H            1.01984653319303        2.25883783326317        0.54110272552631
H            4.44702833876378        1.98550993711997        0.59148732365668
H            3.05097614135866        2.95239147201417        0.86825022709425
