25
 energy: -43.513514068043 gnorm: 0.000724210265 xtb: 6.6.1 (8d0f1dd)
N           -5.01483754463099       -0.33972772323567        0.71282591909414
C           -3.91673409953940       -0.08756465630016        0.48107114493202
C           -2.56944773927581        0.17918478296254        0.18000053152711
C           -2.12393340000124        1.48924191458742        0.27520543159239
C           -0.86815334841028        2.00149690070595       -0.00607999663927
C            0.34023453666482        1.33413802379379       -0.23569780474543
N            1.38976442723842        2.13409037421681       -0.44188511371995
C            2.62322691253848        1.67089610971491       -0.37690396518097
C            2.90354744771718        0.36390497850007       -0.01599280861420
C            4.09129459609345       -0.37293577589586        0.15800451669348
C            3.74383834930397       -1.70415504357096        0.36611811030106
C            2.35806298849941       -1.83903291021359        0.32302296805921
C            1.80179138705247       -0.56498706434283        0.09849704244513
C            0.49069947489573       -0.12946221503325       -0.10739595921203
N           -0.46890483582710       -1.03679740120163       -0.21114100828852
C           -1.76915653162117       -0.94384207709639       -0.24403061206753
N           -2.41846842163224       -2.05769708889579       -0.64342768322122
H           -2.87717558025434        2.21176726139636        0.56867361182785
H           -0.76355071641617        3.07806650163332        0.03543711599166
H            3.40370520627123        2.38693721939736       -0.60442260262798
H            5.08733098628372        0.02847745164356        0.12527208947941
H            4.43879781765623       -2.50724875549625        0.53437876029688
H            1.80039823262755       -2.74927733773522        0.43775333374952
H           -1.87117735651343       -2.87523513347157       -0.84977892233901
H           -3.41773970551192       -2.13271736925952       -0.56075498733440
