30
 energy: -50.117442683448 gnorm: 0.000484593602 xtb: 6.6.1 (8d0f1dd)
N           -4.84972848257048        1.79144729600068        0.33657790800942
C           -3.87601160715439        1.18314013454375        0.23838581829550
C           -2.69516929654214        0.45752211228026        0.12263890198744
C           -2.59809187402546       -0.93226179767762       -0.11769743877695
N           -3.64916034323505       -1.78328079681303       -0.23797464406525
C           -1.22549112406086       -1.27197598598999       -0.12440393569971
C           -0.56993801214313       -2.47886512657824       -0.29234205251117
C            0.80335327220380       -2.52014072652881       -0.16927106029811
C            1.58064990222714       -1.37709724486712        0.08044666892890
N            2.84540013211324       -1.62190134342449        0.42006193673982
C            3.85940567245184       -0.80829870092239        0.56075848901706
C            4.03050718999272        0.50643375676065        0.16505214261112
C            3.01237980692278        1.38378118074680       -0.24921775829969
N            3.39502281279754        2.65363320595600       -0.58900149737544
C            1.64275583481606        1.12685820003396       -0.21849380451680
C            0.94076854269550       -0.06363989328901        0.03177388046012
C           -0.46037605472980       -0.05827878636266        0.07181038983754
C           -1.39000748558848        0.99458409011821        0.24844576479400
N           -1.12912155479742        2.31430703936990        0.49980545776880
H           -3.48054405892214       -2.70689139843184       -0.59553410467728
H           -4.56365217401155       -1.38988047168202       -0.38294425939626
H           -1.12187871689509       -3.39199743813034       -0.46947789373686
H            1.32977132278122       -3.46038684616307       -0.21896393063284
H            4.73011655487359       -1.30054562103778        0.98931345260875
H            5.03347898697044        0.91102059526693        0.20491625719211
H            2.72534219668324        3.25817902986278       -1.03239656527935
H            4.36397616964574        2.82406011533130       -0.79414962259844
H            1.02381410454481        1.95867269289507       -0.53220137136027
H           -0.27225103263691        2.51301921223486        0.99444120469692
H           -1.92719731650493        2.85517467009656        0.80127784697609
