29
 energy: -51.198487438024 gnorm: 0.000813693523 xtb: 6.6.1 (8d0f1dd)
N           -5.40879343226734        1.39518455279255       -0.36175725936508
C           -4.30562173060658        1.09150821095172       -0.24775344810653
C           -2.98558827175824        0.65111382494365       -0.12535858857944
C           -1.83514609496134        1.42960333648621       -0.02717788398892
C           -0.72518422274736        0.56751122899089        0.03944898990145
C           -1.21934407353817       -0.78913672860007        0.00953691123037
C           -0.32509988560113       -1.84632521006146        0.19988901072377
N           -0.73579578701132       -3.13621029348390        0.31505084565135
C            1.04710518322876       -1.54590774960953        0.20997253193092
C            1.55857946467835       -0.26237270004336        0.10785049945522
C            2.96000394873788       -0.10093258821784       -0.12737874287580
C            3.71121759052435       -1.28296959189130       -0.31727275312763
N            4.35844100240856       -2.22121970933883       -0.46336415793144
C            3.70517280028437        1.06563239544105       -0.29256126149307
C            3.32097679327211        2.37555384873028       -0.07134346439159
C            2.06285138910488        2.78792625088529        0.37776718400807
N            0.92966192642604        2.14961731361429        0.40310508506699
C            0.63429296755565        0.87674877686190        0.15758819214151
C           -2.61902946998792       -0.72820059491422       -0.11804480328182
N           -3.50443664954515       -1.77018361708143       -0.18996115966887
H           -1.79537522153614        2.50137413285273       -0.01620307462823
H           -1.68217603286578       -3.30909297244484        0.60932917277106
H           -0.04877460047273       -3.81893720327086        0.59186094428074
H            1.73745327905125       -2.37604840256144        0.27581192433983
H            4.74023621857754        0.90841230195209       -0.57669674510632
H            4.07386860429849        3.14156369944713       -0.19353529630046
H            1.97701278569627        3.81760791380806        0.71706237196752
H           -3.19446144047431       -2.60271615669715       -0.66726774295355
H           -4.45540389477676       -1.50295205924309       -0.40267295706882
