28
 energy: -52.290240201633 gnorm: 0.000747981555 xtb: 6.6.1 (8d0f1dd)
N            4.88173315248809        0.64831613483237       -0.25828337502489
C            3.73944466831666        0.75942989800761       -0.21811789002567
C            2.35279300537351        0.93537518700035       -0.16824742057008
C            1.69371191804544        2.17705868853421       -0.25000670853234
C            0.32022748907224        1.98177917850834       -0.13457375940616
C           -0.64304647462819        2.98481050363930       -0.21977607369935
N           -1.45145654493909        3.80392353910690       -0.26325922026531
C            0.08154929064804        0.57566045687023        0.00991697665244
C            1.37486755809957       -0.06475880739577       -0.03150839001528
C            1.45113586354580       -1.46142335702117        0.10643008433467
C            2.69573945029751       -2.13449757728703        0.12794407004843
N            3.68074499886015       -2.71894384085854        0.15302074001319
C            0.28761150327352       -2.19688784833512        0.20250266016601
C           -0.99512030470175       -1.60320734785681        0.14705091498523
C           -2.09522104253405       -2.49475994500936        0.08446889744943
C           -3.37557591928270       -2.26679076945871       -0.35936748605712
C           -3.88484330606897       -1.00575148722845       -0.69853793774642
N           -3.46601543731924        0.12457612290483       -0.21793925113512
C           -2.37090790794620        0.44532034156445        0.42030147194384
N           -2.44429246251041        1.41738072483338        1.33049616515080
C           -1.07945165375820       -0.17381341191893        0.14420798921975
H            2.17864298924297        3.12695340495754       -0.38241502787148
H            0.35557314463437       -3.27257030054944        0.27142897351069
H           -1.83509518917238       -3.53242466475965        0.25827929668790
H           -4.01452863489433       -3.12210541043052       -0.52622149091889
H           -4.76020329872286       -0.93549515489634       -1.33331316480620
H           -3.31078886097897        1.92175907363477        1.43263205187617
H           -1.60941060044866        1.83711149224866        1.70408593652893
