34
 energy: -61.820414992269 gnorm: 0.000706092372 xtb: 6.6.1 (8d0f1dd)
N           -5.88209929665768        0.91087979043252        0.28445493289109
C           -4.76013218427080        0.66055922951705        0.18941459775622
C           -3.40231781029906        0.34083316761317        0.08426361178183
C           -2.45710688146283        1.31572532626841        0.47740658378202
N           -2.94947467258620        2.50562580610998        0.92571071910958
C           -1.07047914325363        1.22502804239292        0.33513243052179
C           -0.25994930847520        0.12711121893443        0.04935715061170
C           -0.75457045442711       -1.26066783983865        0.02267479499944
N           -1.97055177712931       -1.60715414413854       -0.35662609934708
C           -3.07961571016461       -0.92630597671077       -0.48666491074932
N           -4.04804974374412       -1.56017897513062       -1.19153579253190
N            0.03678288074181       -2.27842975516377        0.32678921801443
C            1.35531365838246       -2.13096012141770        0.42754721092422
N            2.05286988349125       -3.24202334365746        0.79875063701488
C            1.97243444211601       -0.92674928995729        0.07866991388986
C            3.31425839372081       -0.52650638263363       -0.06943102476742
N            4.42698374655889       -1.31524232752897        0.03637925337247
C            3.32029926051001        0.86675245171617       -0.31695048296961
C            4.44986230232892        1.63632667009833       -0.57549027550955
N            5.38378975981757        2.26832198673261       -0.81177968286120
C            1.98618250043363        1.33881650838073       -0.32847570778222
N            1.63008384069869        2.63983674079467       -0.54633562533734
C            1.13182133113776        0.23761879471736       -0.08209891151713
H           -2.32429686335904        3.17767792365213        1.33268899251915
H           -3.93073113431519        2.58677343273159        1.13027954153567
H           -0.53901995872469        2.13441762227764        0.59035520379532
H           -3.87226380723055       -2.51387041488473       -1.45629623538778
H           -4.99205583709666       -1.21370260820048       -1.18461355781807
H            1.47963896558025       -3.99614679548657        1.14380311705355
H            2.94574945658976       -3.11027017423508        1.24367531091188
H            4.32025218894401       -2.28094719079327       -0.23290796743764
H            5.28910640057956       -0.88618966204802       -0.26674503622159
H            0.72101375337611        2.79949463819262       -0.95209861392706
H            2.36551745728441        3.23609395246874       -0.89706150202481
