28
 energy: -51.473733944591 gnorm: 0.000636346117 xtb: 6.6.1 (8d0f1dd)
N           -2.01577399932619       -3.29839167440957        1.07714142820852
C           -1.28172439614867       -2.51099336329144        0.67749075867833
C           -0.25370007209061       -1.61799446229554        0.30508287131808
C            1.01692186377633       -2.17350242186769        0.17158085741704
C            2.07815530256712       -1.33592048117319       -0.10257198300109
C            3.45623272028515       -1.52561994207834       -0.33008054920051
N            4.09515638465694       -0.37275375772158       -0.49216770044460
C            3.18616858196431        0.61675666348556       -0.35795777231416
N            3.57385218424708        1.90214489867689       -0.48832223546688
C            1.88295071421004        0.09298758216712       -0.09509280906574
C            0.64511335245216        0.67621208996998        0.16977379315810
C            0.57774062923229        2.02874876123677        0.57760507747386
C           -0.53258554747701        2.80317730939785        0.82115500309786
N           -1.78659937964275        2.63805490785723        0.44924739085551
C           -2.32743279430221        1.55703071552407       -0.08099993003371
N           -3.53717703007574        1.77022136196029       -0.63302562405403
C           -1.82471217901410        0.21124768347981       -0.04471477406847
C           -2.78998570181641       -0.74226882145302       -0.42779796177092
N           -3.64716606136309       -1.38609316765456       -0.84688542894517
C           -0.50191910832434       -0.22062037835390        0.17405319633380
H            1.14675116845787       -3.24095721351836        0.27204424899573
H            3.98715206952709       -2.45751248254262       -0.38958477695932
H            4.51926694124371        2.03456783666863       -0.81167277924489
H            2.89418324765287        2.60364940816347       -0.73059753342073
H            1.52801211844578        2.47249221360293        0.84215994166159
H           -0.37179534169701        3.75661936772340        1.31609513677808
H           -4.11272265069110        1.00782465494890       -0.94849824483078
H           -3.92467804914810        2.69489302659748       -0.55578862135430
