29
 energy: -51.199772667201 gnorm: 0.000580228464 xtb: 6.6.1 (8d0f1dd)
N           -2.89630230109117       -3.39856300365127        0.23047639056665
C           -2.58995537223461       -2.29355978691613        0.17900572453640
C           -2.28454230848223       -0.91134196547774        0.12041503809227
C           -3.36421603607480       -0.05834940890147        0.33606455741245
C           -3.40702694087677        1.31668319170043        0.24130541162967
C           -2.35945495851275        2.16901706617529       -0.09867055685994
C           -1.00950366349018        1.90096464970957       -0.24932476864234
C           -0.28699021413445        3.03584563402796       -0.68780913680892
N            0.19710549837987        3.99194295726656       -1.10200298520001
C           -0.28023405055093        0.67852972291907       -0.06568229413765
C           -0.90341045956467       -0.63870350810862       -0.08459456044515
N           -0.19293683698940       -1.74332297915178       -0.27096839648374
C            1.13901558471632       -1.74044160694518       -0.28730864515691
N            1.72498614636766       -2.93643449249077       -0.54679084142500
C            1.84349259843327       -0.57676685497013        0.02390203015502
C            3.19749814073150       -0.28123478390320        0.25330309918765
N            4.23799463016710       -1.16678538627428        0.28941538732707
C            3.30378455925391        1.12153878432138        0.42809746828755
C            2.06191599528901        1.69450820724082        0.31707809044188
C            1.10264151774989        0.66836719382836        0.07557144347237
H           -4.29887680213505       -0.55656263019891        0.56759450803948
H           -4.36882796225731        1.78500142155439        0.39963002690293
H           -2.63502362381877        3.20640068915276       -0.25675652411710
H            1.09444516618095       -3.66027471347150       -0.85527149242442
H            2.66050421737329       -2.94801414440435       -0.91550047267358
H            4.02392872385430       -2.11378358450260        0.55972246563830
H            5.10505534209440       -0.80859283001154        0.65896921218550
H            4.22258568354421        1.64056803060397        0.63143660891996
H            1.85009950767707        2.73853215857876        0.43757966177979
