30
 energy: -55.727527791374 gnorm: 0.000628147022 xtb: 6.6.1 (8d0f1dd)
N            5.92943180491257        0.16022606535548        0.75458270356075
C            4.81095111880107       -0.00873093492615        0.55656742511048
C            3.44961023448839       -0.24111712740764        0.31969056053053
C            2.87560785787064       -1.51778428805201        0.11858852792993
C            1.50962798586868       -1.33673855225388       -0.04472929001317
C            0.43909502128618       -2.22414813133481       -0.26492859075421
N            0.60346357051924       -3.53783448022595       -0.47016184717931
N           -0.81588472074603       -1.78445800330304       -0.24890516678059
C           -1.12137138947245       -0.49663962610515       -0.11075607704095
C           -2.51420985471695       -0.32521527435867        0.05180987845870
C           -3.20121170917505       -1.56478818305346        0.11661025111711
N           -3.83452423025355       -2.52115697973575        0.17961094479884
C           -3.32231215238994        0.82360691499456        0.18814077493566
N           -4.63407862239706        0.64166769907257        0.46122289374532
C           -2.88088590606120        2.14597204959190        0.01809921772996
C           -1.61058541742982        2.59799868517292       -0.23760588953845
C           -0.38589994088210        1.92029165007587       -0.28025764163287
C            0.67106094565889        2.80965580255652       -0.59710393171582
N            1.43064635433445        3.61093030174191       -0.91095169234412
C           -0.09592111844048        0.54905701066595       -0.10133055508667
C            1.22092090314133        0.07906215409726        0.03015261791801
C            2.45275040123894        0.73086043866959        0.25911877564456
H            3.41931675829371       -2.44471848271514        0.11278815257946
H           -0.21712096359888       -4.10920830592035       -0.57815046024795
H            1.51501331116158       -3.95640893657984       -0.44311191853397
H           -5.25669458413334        1.42819603809948        0.50529203487062
H           -5.01476689890352       -0.28671739686785        0.53370064735250
H           -3.65537035227052        2.90075598574863        0.07219763072073
H           -1.52658511272431        3.66668801034320       -0.40254269940635
H            2.61555781331954        1.77993745425376        0.40610006757130
