30
 energy: -54.935762813066 gnorm: 0.000809908523 xtb: 6.6.1 (8d0f1dd)
N           -5.06489256276981       -1.15820040805200        0.10496584960855
C           -3.96284408942902       -0.82103270016910        0.07312955360628
C           -2.62107593836226       -0.41991204797105        0.03069142549633
C           -2.36284027811139        0.96700450627709        0.07223280634543
N           -3.43064994987890        1.79311731544145        0.16951869308688
C           -1.10694448964371        1.58598322005468        0.00318152737441
C            0.17927032556123        1.05937974518622       -0.04417399561344
C            1.26659732865963        1.99328824879988       -0.08893585141136
C            0.98503783943086        3.37197578899400       -0.16302335741613
N            0.78206450601144        4.50187594298557       -0.22513112201899
C            2.60782750381828        1.62836137538647       -0.05446464112239
C            2.91479215098866        0.28352371273572        0.02613653950103
C            4.09951584284436       -0.48225446372574        0.08986962316655
N            3.85814264855027       -1.79014071646716        0.14266570653366
C            2.51711667452952       -1.94145506310422        0.11047620561608
N            1.88972387326907       -3.11545695094501        0.14249433194419
C            1.85055398539419       -0.67744712917019        0.03913659925562
C            0.50002611744085       -0.36176481236688       -0.01637268920363
N           -0.34031481360963       -1.41001123516256       -0.06345357981629
C           -1.65003181323772       -1.46208417972714       -0.08242054655053
N           -2.13922626905897       -2.72325753614694       -0.18799901198357
H           -3.30044274849482        2.78839641524000        0.18525352999817
H           -4.36410434618220        1.42208353768821        0.21182413855466
H           -1.15703966807747        2.66945928008459        0.01090362930516
H            3.37381475836027        2.38953392440613       -0.08535429326578
H            5.11081559823419       -0.11826202865433        0.09878242089860
H            0.87955321861592       -3.06018465274164        0.11869924931357
H            2.40492212867656       -3.97475325244835        0.21182447226932
H           -3.12744750193369       -2.89026961282307       -0.25944039879123
H           -1.49762483469575       -3.48098973430459       -0.33445400538130
