30
 energy: -49.334780265421 gnorm: 0.000545592366 xtb: 6.6.1 (8d0f1dd)
N            3.97547404896794        1.21702591304901        0.91794821651834
C            2.79938874464347        0.88368348813851        0.31426256723989
C            1.84594858826092        1.87069203361195        0.09340997270644
C            0.50225585785555        1.70243059810628       -0.24941103343062
N           -0.20655286222964        2.78752923906749       -0.57102748349322
C           -0.25062378135269        0.46525038193127       -0.14599806392674
C            0.30770867177622       -0.84153260478371       -0.06722756028865
C           -0.52398264597489       -1.95472290472097        0.22520332688714
N            0.05106063848767       -3.24575786932954        0.36439947812005
C           -1.89087303099316       -1.82482660994948        0.36294436029871
C           -2.48429503069034       -0.58391107186306        0.17706210857458
C           -3.79764243157449       -0.09311816621705        0.19919555468853
C           -3.69020571476407        1.26539451671286       -0.03986216239110
N           -2.41921877142050        1.66919991078118       -0.21323048684874
C           -1.65036200265631        0.56372706319343       -0.08452813351824
C            1.69119417787536       -1.08091487621870       -0.42965453279133
N            1.95602172503190       -2.17567407947692       -1.17137604008350
N            2.74366033394272       -0.37546059208050       -0.10698591923497
H            4.22184801181761        2.18610512688853        1.01167856440758
H            4.72185054224570        0.54579419182072        0.86499169773035
H            2.17992526268809        2.89537964466928        0.21312168327271
H            0.22910775014788        3.69209691738500       -0.49556224098873
H           -1.25260087619347        2.66591178179245       -0.53688107312200
H           -0.62953499641446       -3.90312745314078        0.72494278110106
H            0.87719207135095       -3.24807937849294        0.95084667675930
H           -2.49242094292534       -2.69407130332819        0.59718432684739
H           -4.69917412083699       -0.65096068942079        0.36555127708372
H           -4.48855096111907        1.98554628145570       -0.10411753713130
H            1.24409659349214       -2.88160425231636       -1.27395692331186
H            2.91917325746121       -2.39537267556472       -1.35809784877478
