29
 energy: -55.213738327889 gnorm: 0.000912286289 xtb: 6.6.1 (8d0f1dd)
N            5.29939742229883        0.81295184867963       -0.12660148357011
C            4.18052538337335        0.54714751111633       -0.08917925569015
C            2.80457374426907        0.26223206090941       -0.03971704646557
C            2.43977744054955       -1.07482355095576       -0.06189318160431
C            1.17442862447640       -1.64370835665899       -0.01414799334239
C            1.13585398840730       -3.05844145368244       -0.02877672035868
N            1.15158805001298       -4.20592616270929       -0.04082954477189
C           -0.09867113041728       -1.00681961978511        0.02362194127447
N           -1.11437516428187       -1.85781158747709        0.05345009869125
C           -2.39451702342296       -1.47329353160482        0.03886345684481
N           -3.29968541928928       -2.46272079719829        0.09302097743354
C           -2.71874636321034       -0.11190059771477       -0.03038210949466
C           -3.87595525549231        0.68168237337284       -0.07653094150258
N           -3.59920746171659        1.98869222677311       -0.11593679091477
C           -2.26087514802777        2.10490622800548       -0.09435586911337
N           -1.59769784129290        3.26076891888105       -0.11957966612030
C           -1.62793565167396        0.81903257639344       -0.04206871808814
C           -0.29422728397152        0.44379002240899        0.00191627792508
N            0.61172616012951        1.43957839739366        0.03486559074212
C            1.91928216665729        1.39687167872936        0.04602715662416
N            2.51373972014723        2.60922472528874        0.13124965371467
H            3.26303812511960       -1.78005436100384       -0.11454655509369
H           -4.28339234279520       -2.27177572271968        0.06757666264454
H           -2.96097573992627       -3.40865393394575        0.13047290214559
H           -4.90094142913086        0.35658187705839       -0.08261786654935
H           -2.09151336360941        4.13447190534628       -0.15414427366759
H           -0.59047892127214        3.18967369678141       -0.09215677015144
H            1.94310322217285        3.43143408153319        0.20984504936570
H            3.51526167391592        2.69308698668427        0.14636815329299
