29
 energy: -46.395741380531 gnorm: 0.000414637882 xtb: 6.6.1 (8d0f1dd)
N            3.34119619888743        3.04470795752152       -0.25186559648489
C            2.70689043134808        2.08849846583207       -0.18114004440158
C            1.95337912959926        0.89819985571178       -0.08985044039387
C            0.58673271356094        1.06799672605696        0.07837463396414
C           -0.48369916684486        0.16950747571200        0.06371436160767
C           -0.38925683795519       -1.26853834523048       -0.05511009127121
C           -1.55024281075267       -1.99823106541740       -0.33296532298034
C           -2.81385856645738       -1.42719299019699       -0.40591041315774
C           -2.96903828704537       -0.08718755636818       -0.13966096611971
C           -4.09318983569771        0.75555579841254       -0.07736444977357
C           -3.64189843613179        2.03206600900888        0.19742448383586
C           -2.23995019052259        2.03151543851448        0.30336498436212
C           -1.78421778470515        0.73316842778900        0.10704358686035
C            0.82466084224509       -2.00851601727624        0.16976791793729
N            0.67800245837311       -3.33944155687369        0.44861338180535
C            2.13993728426696       -1.57622693873442        0.07164142074298
C            2.68594403804595       -0.31369775349751       -0.14468160004001
N            4.02586462006240       -0.23118647055900       -0.35431647337685
H            0.28745982974840        2.10620336781089        0.15103150927856
H           -1.47002863594657       -3.05308791935404       -0.55151150675494
H           -3.66590509993562       -2.04687653767970       -0.64996993588047
H           -5.11368887112470        0.45053657029909       -0.21837437606367
H           -4.26183992364864        2.90380813614152        0.31755758466198
H           -1.65285199375685        2.90604629565016        0.51968334142686
H            1.49405745305672       -3.85867449804150        0.72360545991580
H           -0.20280580948818       -3.66660068944634        0.80327225114097
H            2.87951120535265       -2.36628350359056        0.16641264985587
H            4.47141388404402        0.66812706288869       -0.40895928644184
H            4.59874451172581       -1.05408665958450       -0.31447828185415
