28
 energy: -45.873185980662 gnorm: 0.000676953538 xtb: 6.6.1 (8d0f1dd)
N           -3.94551856042917        1.79578974091435       -0.60282329919761
C           -3.08132544412255        0.80817936202827       -0.21513822952418
C           -3.64589250609840       -0.43579988594422        0.12534362491466
C           -2.96029186071379       -1.56659673771259        0.52200165682196
N           -1.69322393177391       -1.88784432435194        0.43531457412476
C           -0.64240048304350       -1.15190329465405        0.11073881316946
N            0.44936567610752       -1.87001639210359       -0.12299119621844
C            1.65336673186949       -1.31220355728541       -0.20164011065074
N            2.68204097481562       -2.15839655868795       -0.48655615787800
C            1.84473138310326        0.04691485167863        0.06379024223366
C            2.97204854834875        0.88002805551333        0.16815845173258
N            4.29552669527888        0.47982189481390        0.12632640377782
C            2.51273626012326        2.20644086790268        0.27929587288547
C            1.13143835944340        2.21659599221761        0.25108052880689
C            0.67157927357914        0.88594428651754        0.13651908383824
C           -0.60780042755187        0.32591837405346        0.06127142102054
C           -1.72965971172738        1.13440318742179       -0.14526784760885
H           -4.93117183055895        1.65954082894119       -0.46319334051867
H           -3.61618862773288        2.74495100205828       -0.63511771156445
H           -4.72751796174189       -0.48766525067829        0.13104924498506
H           -3.56500073519867       -2.38070308319051        0.91741333098121
H            2.39975628417801       -3.07422180087005       -0.79861339493320
H            3.51414573535275       -1.76632191245498       -0.89455923391467
H            4.94577295460181        1.18986987013784        0.43197934966025
H            4.47739741963319       -0.42152250266219        0.54452190190057
H            3.14905615490844        3.06861638740654        0.37615041357508
H            0.51798124481711        3.09535967896794        0.33472398670631
H           -1.50266836456803        2.17974209842241       -0.32406019352572
