25
 energy: -38.712883506338 gnorm: 0.000884159115 xtb: 6.6.1 (8d0f1dd)
N            4.07319310309818        0.87082296086901       -0.23284489824280
C            2.88702186851522        0.22300151413077       -0.05651389490808
C            2.94138883378456       -1.17777531828153        0.14140153165185
C            1.86346985339163       -2.02694711392542        0.22209186387885
C            0.50936277211379       -1.72777372915068        0.12342998409470
C           -0.14096872018726       -0.49539879356509        0.02413568013139
C            0.54878868162396        0.80777621718764        0.08082852704019
C           -0.21778485848353        1.97775616024525        0.19610327219908
C           -1.59713856535426        1.97935635775757        0.17787333715402
C           -2.27836602786179        0.78218472821697        0.03179045705445
C           -3.64730626530536        0.47418161526956       -0.04772336949416
C           -3.76819905260493       -0.90483357582625       -0.18597953408557
C           -2.50213106963399       -1.48350057508273       -0.18718904223283
C           -1.54253036808754       -0.45992933321298       -0.05158459475524
N            1.85457955510641        1.03432494720656       -0.01095645087142
H            4.03152013060124        1.85033090263249       -0.45281517084606
H            4.91147040731854        0.36068256997564       -0.44231018155913
H            3.93089675953276       -1.60969918979533        0.21706493055207
H            2.09863235287666       -3.07652970325465        0.35566409237919
H           -0.15023507624857       -2.58472361471203        0.16515545450801
H            0.32885847323565        2.90499868239339        0.27229067343912
H           -2.13878933598384        2.91249175245315        0.25450035575048
H           -4.45343407507384        1.18385814378222       -0.00747707243489
H           -4.69452020652005       -1.44404697852329       -0.27844953642651
H           -2.31014179545364       -2.53614672039025       -0.29277866417669
