29
 energy: -50.400498361492 gnorm: 0.000879449349 xtb: 6.6.1 (8d0f1dd)
N           -5.31538470717538        1.65658725894369       -0.76505001234689
C           -4.28807803956510        1.17666248681256       -0.56572347921838
C           -3.06364492385061        0.55517811263923       -0.32615907461891
C           -1.79200701922022        1.15979587820584       -0.37379252226678
C           -0.82984439892467        0.18921708412557       -0.10125525084028
C           -1.52258238994130       -1.05898675175152        0.13554346659034
C           -0.77891471298868       -2.16323738354082        0.49992353585382
N            0.53908333035621       -2.17103397430396        0.48577077733414
C            1.23110073397555       -1.07193435988442        0.16501565100545
N            2.50492476046106       -1.31514503887090       -0.06009150679131
C            3.53892216736144       -0.51381172556508       -0.22314932314541
N            4.65678216280576       -1.16670633698452       -0.62964338310668
C            3.65273693900481        0.85309793030837        0.08130275926351
C            2.60295382663541        1.74916505662843        0.24677042066804
N            2.92289719582650        3.06396473573926        0.44376545800741
C            1.23334223056259        1.45888212909503        0.10953085379684
C            0.57689771756204        0.24173841647030        0.02175526949488
C           -2.91257430550401       -0.81402624135266       -0.00537752006182
N           -3.92196821790681       -1.69915971870407        0.18576278219070
H           -1.62609357950866        2.19520331181845       -0.60971644568063
H           -1.23984387759354       -3.10034303454291        0.79478913042056
H            4.57099442799040       -2.14452367882459       -0.84182368340122
H            5.50568129535752       -0.67838991930840       -0.84530850167446
H            4.65585238540836        1.25825988020538        0.12746763111578
H            3.86364259325659        3.30159248660782        0.70436833514641
H            2.19836847430484        3.70288140780068        0.72022788699088
H            0.58737018210795        2.32923914236920        0.12473159980962
H           -3.70899484152297       -2.68038997718878        0.21774146896859
H           -4.84994389307547       -1.42801662294645       -0.09280055090444
