23
 energy: -39.263669032290 gnorm: 0.000806807450 xtb: 6.6.1 (8d0f1dd)
N           -4.16541676607230        0.50918623340705        0.04335713773117
C           -2.96858025617290       -0.08805842470218       -0.10032418108225
N           -2.88015857734979       -1.41880417861129       -0.32199439643373
C           -1.58810544871032       -1.72592841729170       -0.36009017364006
C           -0.76107113680286       -0.59660810791517       -0.17231690681497
C           -1.67938196636069        0.50508100321949       -0.00640979350718
C           -1.20705130869474        1.78128154667643        0.22586037155408
C            0.15986172414146        2.00002890040133        0.20556928208447
C            1.08179901302242        0.97441821702580       -0.03290232231167
N            2.33212382949557        1.35842327561063       -0.31635464893380
C            3.41999394282017        0.65595104360160       -0.38710591040928
N            3.72994116740728       -0.51623033636591        0.14570445580454
C            2.84329332960574       -1.45351874368744        0.41772291751681
C            1.48622210325694       -1.50126414707629        0.13762861804299
C            0.62118099221444       -0.41305825566458       -0.09743691682900
H           -4.98702850992793       -0.04315368572583       -0.12817462615344
H           -4.23437762209059        1.51008972983229        0.06232549317131
H           -1.28887782411840       -2.74127427171439       -0.54703195634291
H           -1.88235135054188        2.61101899101060        0.38412822013388
H            0.55603888513509        2.99682927339516        0.31893792277840
H            4.25883307455315        1.16586871937795       -0.85703126545347
H            3.28551380755979       -2.34203360642154        0.85943808198254
H            0.99913139903076       -2.45795580678204        0.27781218331163
