31
 energy: -53.851160736725 gnorm: 0.000704170237 xtb: 6.6.1 (8d0f1dd)
N            2.75526927886551        3.20538378238433       -0.32221739937053
C            2.54845660047569        2.07562744774882       -0.19430799562691
C            2.37111570646316        0.70886292102156       -0.05080220233986
C            3.46236989674413       -0.20476537182934        0.06516412601380
N            4.76985303802254        0.17801504313659        0.11415521860570
C            2.97308845922719       -1.50553135720426        0.18169607074766
C            1.58252713603974       -1.43954767212625        0.15144467795719
N            0.69943572117377       -2.42458729748313        0.27274501558423
C           -0.58169547660851       -2.13354116502225        0.17279887499868
N           -1.42858817166655       -3.25314735275420        0.28448790223325
C           -1.10862670963836       -0.83472938711803       -0.04662157070704
C           -2.49222849381255       -0.65702860893648       -0.36979371462720
N           -3.14260885975871       -1.65731637300306       -0.99018124715635
N           -3.27533739918481        0.36660151869164       -0.06365075460239
C           -2.97224057363119        1.61449756715352        0.20170590523508
N           -3.98804161667261        2.36633534978724        0.67951184423446
C           -1.73619373703274        2.26173278930850       -0.07477651311086
C           -0.53365037565791        1.64138529579012       -0.22616091493634
C           -0.17920348859124        0.27433681446355       -0.08174185420294
C            1.17929976754299       -0.04599340065182       -0.00975987969307
H            4.98762767167946        1.11620427665925       -0.17953235416542
H            5.47083822603259       -0.52298397468281       -0.05456101151595
H            3.56335045407102       -2.39521201062508        0.28509856154433
H           -0.86679190866165       -4.05925848655725        0.53233501701474
H           -2.19139921986041       -3.12591646668409        0.93753027019259
H           -4.12269124249803       -1.54467436727517       -1.18154541819657
H           -2.66984002085424       -2.53137622205458       -1.16009110308117
H           -3.84921507236616        3.33291546389569        0.90847071466897
H           -4.86520777982424        1.92438560670417        0.88811881482947
H           -1.75900955572835        3.34258384756254       -0.11171046609485
H            0.31279401460994        2.29556483571143       -0.39156701672867
