27
 energy: -46.955097896189 gnorm: 0.000756338842 xtb: 6.6.1 (8d0f1dd)
N            5.39098938126331       -0.33862530995542       -0.00109232375734
C            4.24054354323482       -0.33386508603012       -0.00025396384220
C            2.83437496369987       -0.30083116658325       -0.00085167356486
C            2.18884251997105       -1.55343070733372       -0.00143367813690
N            0.94265592837100       -1.89927521033495       -0.00118841411208
C           -0.17087132375703       -1.13967849909061       -0.00066592244854
C           -1.33611129209623       -1.89025826735473        0.00000153564809
C           -2.62895304469292       -1.34528179738577        0.00019972590087
N           -3.71114641147910       -2.14457490064249        0.00079887955128
C           -2.73516667499663        0.05179879334646       -0.00042624856717
C           -3.80714106601499        0.95398926756859       -0.00062335446318
N           -3.37831163331902        2.22105659422416       -0.00129976133633
C           -2.04542632963256        2.18730903212847       -0.00151250160857
C           -1.55141538968534        0.86780823026629       -0.00099720058078
C           -0.24802308946712        0.32963245185752       -0.00090351091706
C            0.83225894464701        1.20014117552331       -0.00074124984682
C            2.21513569277072        0.97109073667985       -0.00049547529337
N            3.01894895873906        2.06005243227654        0.00007440650265
H            2.86329565286669       -2.40862434574714       -0.00199779102118
H           -1.21783785347664       -2.96362062450736        0.00027148595180
H           -4.63223866600181       -1.74570146976636        0.00099519429636
H           -3.60602643232107       -3.14355724100645        0.00133729143153
H           -4.86171084745223        0.74185328555787       -0.00031572075837
H           -1.49571369023834        3.11128082516871       -0.00209815218343
H            0.56266544907939        2.24978922384874       -0.00060423194685
H            4.01880672871135        1.95226390784385        0.00013961746506
H            2.62618700857680        2.98388223074801        0.00019735573736
