32
 energy: -59.960678023506 gnorm: 0.000503085631 xtb: 6.6.1 (8d0f1dd)
N           -5.38778876206332        2.44812891362438       -0.14013291716225
C           -4.36633329979407        1.92486424379004       -0.08648305715959
C           -3.09962402936438        1.30634564068061       -0.03060666315184
C           -3.09470591501923       -0.05024055450505        0.25193409465195
C           -2.04483898945148       -0.96179681700673        0.26802131379634
C           -2.46497966322666       -2.23964109158196        0.71926931536547
N           -2.88443848695396       -3.19053916837958        1.20634918417681
C           -0.66096090833093       -0.78326716350987       -0.01522252068687
C            0.11573161734355       -1.93948997134850       -0.25062447352460
C           -0.46989403309557       -3.18036918403506       -0.58722449630512
N           -0.81695016185296       -4.20260280553725       -0.97769980871490
C            1.51682672225511       -1.91958408656966       -0.27116374885379
C            2.16380033461194       -0.73159440241285       -0.05415268517322
C            3.55031324897771       -0.40474123636831        0.02713686623537
N            4.58609891051529       -1.25671328728972       -0.04363679978640
C            3.63369520623164        0.99762745411626        0.19889654263720
C            4.83016775589966        1.70767845064629        0.32739371163399
N            5.83114417631710        2.26407047308272        0.42600975493338
C            2.33778245501559        1.53444808726531        0.21739681530498
C            1.40884900465594        0.49614648812422        0.06659223899970
C           -0.00279521540413        0.50881547505623       -0.00030295178523
C           -0.63376024067456        1.75585047236103       -0.10152997415390
C           -1.96285261472470        2.15089345488474       -0.20419243701508
N           -2.20727340515523        3.46130205817233       -0.43730224611800
H           -4.06897444975041       -0.47683760903857        0.46813113983390
H            2.04658659183049       -2.84557304346660       -0.44579375874693
H            4.43425956361780       -2.24202505780140       -0.16139739826524
H            5.52644531921139       -0.90898975991144        0.02858131101085
H            2.13560474027892        2.58122347829469        0.35105201187146
H            0.05972556641842        2.58457033149109       -0.17325706701053
H           -1.44963027559914        4.11213428985284       -0.53939535513347
H           -3.15183726352033        3.80148632361923       -0.49679672480861
