33
 energy: -58.093400943438 gnorm: 0.000802932209 xtb: 6.6.1 (8d0f1dd)
N           -5.65534156556362        0.55999939838484        0.03036527349137
C           -4.50887600981262        0.44124217651888        0.02048045614410
C           -3.11206140027576        0.30000921014802        0.01012599889221
C           -2.61338584583301       -1.02367388174923        0.06784752728303
N           -3.53583029811817       -2.01770682892415        0.15238992334801
C           -1.27993339505691       -1.42886094398592        0.05118895349225
C           -0.06573973378950       -0.74129744146910        0.00661499215662
C            1.10641621654044       -1.54535804857270       -0.03209202099503
C            0.99892406822477       -2.94292960555547       -0.09417489306094
N            0.98628264254519       -4.09342984595941       -0.15905255797118
C            2.42151161931169       -1.02494621597581       -0.04103347339970
N            3.49842947708795       -1.85315629164856       -0.07952081509245
C            2.55331953464239        0.35813236352687        0.03010696795562
C            3.65449659000488        1.24058271185069        0.08625299142775
N            4.99137460480331        0.92915244338919        0.12190628679073
N            3.24850740814262        2.52420636158474        0.06590626660871
C            1.91767865943674        2.51313913447167        0.01750579461688
C            1.39172035497241        1.20710824453178        0.00697797991386
C            0.07426271359597        0.70449239938978       -0.01237347882972
C           -0.97194539361335        1.62347919445364       -0.05465224948132
C           -2.35999262941260        1.49704545075154       -0.05857798516547
N           -3.06757808571765        2.65520437676623       -0.14159105816800
H           -4.51818305552362       -1.80889228078797        0.12304014107487
H           -3.24233815156355       -2.97749837207517        0.14333097147526
H           -1.17041146784323       -2.50838059081562        0.08292199542694
H            3.33207205109703       -2.82874894180042       -0.27293228639083
H            4.37057820704552       -1.46715869118960       -0.39937073415916
H            5.56578502908512        1.74729152687527        0.26950233367899
H            5.24875041600582        0.14572600704497        0.70423318912213
H            1.39051994833072        3.44992604380745        0.00419271506010
H           -0.63934147419694        2.65363987110328       -0.09346708611952
H           -2.59057074603056        3.53774853726995       -0.13513379608846
H           -4.07136453872198        2.64529154534102       -0.09627795503797
