34
 energy: -63.406751365505 gnorm: 0.000900517584 xtb: 6.6.1 (8d0f1dd)
N            5.15687789323553        2.24135694938958        1.50842860173415
C            4.28055188784545        1.65408570588482        1.05851626858434
C            3.19227982328703        0.94576247114836        0.49373246916923
C            3.35290828810509       -0.42151652864803        0.34273023055382
C            2.46928878480350       -1.31475137287846       -0.25883397111989
C            3.00191789557733       -2.60206440205129       -0.50873922986016
N            3.44284443195206       -3.63834427012109       -0.73129134808943
C            1.11336348821899       -1.11907952509532       -0.61069462486117
N            0.52929394482946       -2.09073450054705       -1.32594632118512
C            0.29524378872909        0.02281339679531       -0.28554697322232
C            0.82591188604188        1.38442066253701       -0.29059299062315
C            2.10489437419088        1.73847894139314        0.08248076713580
C           -0.09403710615709        2.46915872375481       -0.55450549708746
N            0.39537457936830        3.72457369996025       -0.81795521896049
C           -1.45264785158162        2.27999755803453       -0.42179542030322
C           -1.94713104147592        1.02173839522226       -0.09089799631738
C           -3.25253842370301        0.58879994588115        0.16631144437110
C           -4.40219691532802        1.37093008120291        0.22355713909098
N           -5.36687452135352        1.99676582208441        0.27330523008821
C           -3.21255172850907       -0.82031064924761        0.39336452203165
N           -4.28183631605054       -1.58941394679622        0.67639906265733
C           -1.88911315292417       -1.26639085743399        0.22703562265847
C           -1.49849802113283       -2.57896097766748        0.46504453795832
N           -1.20724580761864       -3.67793269092993        0.65781997184587
C           -1.06768566207014       -0.13124427612337       -0.07647855022564
H            4.30430149463824       -0.83592305067537        0.65650442853901
H           -0.45082959308815       -2.04065709455400       -1.54831287636269
H            1.00050153809142       -2.97185343897065       -1.46408281619052
H            2.28880216418472        2.80220566052364        0.17722633162967
H            1.26340771867294        3.81240481850575       -1.31799563477249
H           -0.29278155161361        4.42746560975414       -1.03199187509487
H           -2.13424199917760        3.10802809675473       -0.55259938698261
H           -4.14403693713649       -2.54993473331284        0.94027100571439
H           -5.16109350075302       -1.15097372667322        0.88956229869684
