34
 energy: -57.804799239073 gnorm: 0.000513003656 xtb: 6.6.1 (8d0f1dd)
N            0.83082788407089        4.22712487632033        0.75393197664768
C            0.79810995182009        3.09795208828589        0.52380855247174
C            0.83471474369499        1.72024271661324        0.27246279356825
C            2.10379737725860        1.11157388926425        0.24964270805328
N            3.23545094862747        1.84843811908065        0.45627168318161
C            2.15539787395379       -0.24567825836840       -0.07036456711884
C            3.22977840404443       -1.11539785948982       -0.33265522283414
N            4.56758380490868       -0.78800110781312       -0.37727986460299
C            2.69546773972816       -2.40391636507291       -0.54963630823529
C            1.32627589292852       -2.35397446751380       -0.43121336186353
C            0.93840406070180       -1.01921865193940       -0.13451883332753
C           -0.32236171471842       -0.44654854248223        0.03533266875015
C           -1.44779726596761       -1.28819269934321        0.27575515039197
C           -1.17169029308114       -2.55253968121567        0.83076665481391
N           -1.07083050045820       -3.56162878393720        1.37904830778603
C           -2.82787671347288       -1.04444130047094        0.08733917598699
N           -3.67312154653712       -2.10881157967846        0.22593765551563
C           -3.42284569733752        0.15762215870864       -0.29622127792154
C           -2.85624209676733        1.42349441489375       -0.38048439978098
N           -3.67971212095799        2.44876570038393       -0.75518435740236
C           -1.52400866246192        1.77453539200025       -0.12026000725141
C           -0.38253463536091        1.00553117907145        0.05872143771491
H            4.04267556721186        1.35327405033735        0.79733320008373
H            3.10633343013608        2.78310797715634        0.81414017446725
H            4.78049977135512        0.13294504017674       -0.73129873759469
H            5.15528175491689       -1.51034698903074       -0.76757943543098
H            3.27861454484852       -3.27395950497943       -0.79258221825720
H            0.66431680898574       -3.18161898848563       -0.59719776194010
H           -3.32337493472153       -2.96158718333200        0.62932294098927
H           -4.66185340379361       -1.94116229072970        0.28034740827144
H           -4.48918860039689        0.10522052922191       -0.48494959218504
H           -4.67319998881728        2.30140937154955       -0.77136645442379
H           -3.35782854334030        3.39415278458909       -0.64448932067447
H           -1.34643930160679        2.84480309513565       -0.12870844985693
