29
 energy: -46.399287862896 gnorm: 0.000970804854 xtb: 6.6.1 (8d0f1dd)
N           -5.93829534931073        0.41948180638811       -0.03726960443100
C           -4.79835314453552        0.27022050338844       -0.02700488523348
C           -3.40199510933818        0.08563230355315       -0.01582667877427
C           -2.94448562378240       -1.23996028070884       -0.05481607082737
C           -1.65741176600405       -1.70550401781848       -0.04916419704156
C           -0.40243154462150       -1.04374734654175       -0.01257473218344
C            0.71493544070224       -1.87243439269707        0.00874824601031
C            2.03603417174530       -1.41475131732691        0.03243583617640
N            3.07360409991794       -2.30470582038717        0.06469925295332
C            2.24422044617058       -0.03699720284018       -0.01402661454044
C            3.41170292293577        0.74988292726079       -0.05179860877711
N            4.71667322188208        0.29411069572400       -0.11189018131445
C            3.01824758098438        2.10028759552040        0.01129078975955
C            1.64256481990952        2.17305544819199        0.05472652588721
C            1.10941526318897        0.85910647450315        0.02507160589054
C           -0.21148261340159        0.39952709075909        0.02231915406403
C           -1.24866470142906        1.36034147954356        0.05225422807852
C           -2.61435514086226        1.24430677370484        0.03570067107618
H           -3.72464614584608       -1.99237664375330       -0.09190144799189
H           -1.57208247781669       -2.78629831121725       -0.08060322828432
H            0.55981125419831       -2.94334685891085        0.02038584307444
H            2.84147667021299       -3.25967087558383        0.28754067191250
H            3.94350421554900       -1.97048398109727        0.44533014116875
H            4.86301141940141       -0.50504037742978       -0.71232640088322
H            5.38927506951961        1.02925196369970       -0.27999319305838
H            3.69570334029996        2.93577666178234        0.01033579950024
H            1.08526113577120        3.09039961012695        0.09494218521762
H           -0.89003175832411        2.37993557439825        0.09208918667095
H           -3.17235200571703        2.17388649036797        0.06471045930035
