29
 energy: -56.004220282145 gnorm: 0.000926677242 xtb: 6.6.1 (8d0f1dd)
N            3.70171088950448        3.68981405433415       -0.64444201258618
C            3.09106447579001        2.74054700947775       -0.44450609267800
C            2.32604389677528        1.57300574122732       -0.19614817371125
C            3.05345903513851        0.40416956967537        0.04896184741146
C            2.56910191734764       -0.87632184664697        0.19278753034269
C            3.56063108175641       -1.85947196004051        0.43857252042065
N            4.36647755169198       -2.64848966936302        0.64973036212442
C            1.22903190003283       -1.37105667117874        0.04172786880585
N            1.08959902951453       -2.68440089346189       -0.02169411872396
C            0.01555805597791       -0.59438515560662       -0.01531029539851
C           -0.09960441702514        0.85202361023541        0.04877388792746
C            0.94769258097868        1.75061256924477       -0.15382295524801
C           -1.40353076911031        1.45233319993654        0.20415662984491
N           -1.52162731010054        2.79548718082161        0.43132658367492
C           -2.58130080117432        0.70615759870620        0.08091082651756
C           -3.83665579131693        1.33349887110646        0.20815665288224
N           -4.83593770263563        1.88423517325938        0.33081627542801
C           -2.48423751436231       -0.67227363092720       -0.12586906537902
N           -3.42083722197420       -1.61371401403228       -0.25679917749591
C           -2.72407322864854       -2.75065213619336       -0.33229411295000
N           -1.40056748670037       -2.63983223441100       -0.25789812606457
C           -1.17946226880675       -1.30178567842180       -0.13024383368465
H            4.13018657705377        0.51816534678993        0.11146532892079
H            1.89660914976018       -3.28612056100915        0.04455055005201
H            0.11186286427894       -3.05753339204595       -0.13582355138802
H            0.64778265314455        2.77814411834543       -0.32394864880026
H           -2.45886169697621        3.13972452788514        0.57301571543735
H           -0.79547657542167        3.29859557728629        0.90893996666968
H           -3.20582244409209       -3.70361489639225       -0.44669004035285
