31
 energy: -53.051484670570 gnorm: 0.000756976627 xtb: 6.6.1 (8d0f1dd)
N            4.29196652522551        1.93120161075526       -0.00578927540787
C            3.20646238733186        1.09316427616937       -0.00689512238612
C            3.46788507426790       -0.27329364845336        0.02864970800744
C            2.53932239657952       -1.32342708472060        0.09108435417824
N            3.06547090397919       -2.58912462854754        0.20855073682285
N            1.22308762225059       -1.32215489444562        0.07494511770885
C            0.37787802319396       -0.27425726971002        0.03805221286597
C            0.67193496362454        1.15895758887359        0.03694903016030
C            1.95220315681858        1.71148645406721        0.00592645230288
N           -0.30809951389705        2.08059908849648        0.06306905114956
C           -1.59491430193839        1.75891602951892        0.04544570113426
N           -2.47901718058003        2.80805515801193        0.07284612301651
C           -2.00553185233806        0.42863529452012       -0.03763491384027
C           -3.21260502117097       -0.29806861863046       -0.07761872359491
N           -4.48755056625726        0.20427532852016       -0.09779099285175
N           -3.00469676724687       -1.63227356060369       -0.04226645166014
C           -1.67835547999440       -1.81356139065219       -0.00300852534777
N           -1.06510760111328       -3.01114525654244       -0.00116245312708
C           -0.97471297139548       -0.57329553613585       -0.01154399139553
H            4.14396984025076        2.89912194029350       -0.23142375631536
H            5.19630205193529        1.54931803419386       -0.22107385500592
H            4.51122471753077       -0.56577190834979        0.01947358444121
H            2.43052436337004       -3.35098198628252        0.04071920576855
H            4.02639388287092       -2.73794920537408       -0.04471767921019
H            1.95546466445900        2.79424735006254       -0.01819209817357
H           -3.37932286387694        2.62781293708702        0.48613173488329
H           -2.05516575371804        3.69046021634434        0.31577424716629
H           -4.60992847450407        1.06781340805124       -0.60455362884558
H           -5.18498207010594       -0.49803358459589       -0.29609658890482
H           -0.07165509345222       -2.94621110659642        0.18615513671359
H           -1.59389966319948       -3.83177301912507        0.23712349044713
