28
 energy: -51.484538668173 gnorm: 0.000516570132 xtb: 6.6.1 (8d0f1dd)
N            5.29043891947351        0.99580408657596       -0.42806332702853
C            4.28369176388737        0.46713028605703       -0.25722193394048
C            3.03576418948165       -0.13189344273676       -0.07073773570294
C            2.77286321270340       -1.40004081343827        0.42642243356359
C            1.37996215248729       -1.60685575163060        0.39228553590017
C            0.62792345666427       -2.72069165734419        0.72202684628889
C           -0.72904692731545       -2.72188328520940        0.45580189732795
C           -1.36841687433589       -1.60059912195535       -0.07551774051330
N           -2.55492680956205       -1.78364208752941       -0.65302497907275
C           -3.45839463398304       -0.92576643740089       -0.99735433229257
N           -3.70839598162216        0.27500018933575       -0.50520698283184
C           -2.81193256514839        1.03323288898674        0.09630530332748
N           -3.31641439991653        2.11804714328113        0.71458635467910
C           -1.38043073614796        0.88378581001938        0.05860747572344
C           -0.68005567802673        2.02728418111836        0.45909219928173
N           -0.15100888651372        3.00144768741138        0.77840504990654
C           -0.65229461266243       -0.31644442411688       -0.11494474700565
C            0.74736194661373       -0.39299287569145       -0.08118209752148
C            1.79715012850995        0.51246943556716       -0.40203250416839
N            1.76013900597913        1.67616702097238       -1.07158398362586
H            3.50576415781145       -2.10355459447116        0.77476306854808
H            1.10963786476124       -3.60820479263878        1.10475666087980
H           -1.31857314452189       -3.61583513407026        0.58313145686132
H           -4.21000685757410       -1.29244317207673       -1.69017342006759
H           -4.31122406182317        2.25718594089549        0.67734090677521
H           -2.72247690022372        2.82503980850855        1.11224352770544
H            2.62928887838879        2.17603285581769       -1.17907470723570
H            0.91159427551585        2.20965391876388       -1.15086225196191
