31
 energy: -58.661901834023 gnorm: 0.000430038100 xtb: 6.6.1 (8d0f1dd)
N           -5.28452717320171       -2.49170219605278       -1.14493927050872
C           -4.34069378993541       -1.89279238919122       -0.87290150547528
C           -3.23318095930018       -1.10878606341455       -0.54594979143627
C           -1.90158825922139       -1.51038888370839       -0.47190259356355
C           -1.12330631118290       -0.38429846914157       -0.15134168194817
C           -2.01535296565771        0.74087504325693        0.00246628893045
C           -1.48743432376682        1.93466975614616        0.52829899169505
N           -2.27355220407503        2.94604288899300        0.97228790026253
N           -0.17789319440254        2.15398641989141        0.54760918247110
C            0.67065628079633        1.20139572384526        0.19054171092166
N            1.86056356782601        1.58495718967117       -0.20955715890333
C            2.94871535987057        0.88775092567455       -0.48169469900018
N            3.85062400318821        1.54031514027136       -1.24715976597476
C            3.29006327094561       -0.39481277964537        0.02021993465499
C            4.62417897733996       -0.80964826528227       -0.05098330111847
N            5.72376571152910       -1.15023672576942       -0.10465665941722
C            2.32830061483726       -1.29315799021356        0.55909227933250
N            2.76814548263958       -2.37980499219868        1.23336280419909
N            1.02405232630089       -1.24592160050736        0.37402902311080
C            0.23875908632263       -0.22315383575079        0.11616018567292
C           -3.31713986728765        0.28860668162773       -0.25426958390814
N           -4.47921525512775        1.00653821076757       -0.19379990244488
H           -1.53127564134826       -2.50254859994739       -0.64513348037049
H           -1.79400644776609        3.69101670173125        1.45207784998810
H           -3.21603176345685        2.73576310096040        1.25390198583968
H            3.65909699586335        2.49875303366386       -1.48064683965250
H            4.77448472139378        1.16669104677190       -1.37995223057390
H            2.09652970384488       -3.08699333969255        1.47579613087077
H            3.74924884417074       -2.59825913763449        1.25720497635412
H           -5.29666065797302        0.53439648614579       -0.55240237634406
H           -4.42312453306512        1.98657780883109       -0.42424618826360
