34
 energy: -56.997243410160 gnorm: 0.000606399595 xtb: 6.6.1 (8d0f1dd)
N           -3.34249784204316       -3.23604485072004        0.40591055616675
C           -2.56580783000513       -2.40218737019947        0.24061343052901
C           -1.58837928987280       -1.41176354430519        0.05467525712517
C           -0.24455229745124       -1.77901322266888       -0.05639899785964
N            0.07326945500389       -3.16505562781758        0.00809541940999
C            0.77483336039871       -0.80861700479590       -0.21118725277583
C            2.13510386672306       -1.24664845531748       -0.43987799511127
N            2.31488709927596       -2.40878429668792       -1.11104923219270
C            3.27847026752486       -0.61618263804648        0.03713615474039
C            3.37545294795556        0.70451186134827        0.48798313781388
N            4.47279853997145        1.09141797742119        1.19346767522066
N            2.59218288732811        1.69199062396449        0.09131907431601
C            1.39568109326755        1.61388278960899       -0.43751846986323
N            1.02557112957664        2.66780019909143       -1.18259672232783
C            0.40931246892526        0.58053159813232       -0.20471803038615
C           -0.92890704806786        0.95796398911940       -0.06671759224703
C           -1.58382097159139        2.19675907165089        0.04045531254703
C           -2.95150609773352        1.95405389140156        0.17804574871124
N           -3.93199171702601        2.92435311745226        0.23947931735143
C           -3.19247786487575        0.56653825599918        0.15492585362982
C           -1.96786612944185       -0.06141669291349        0.03643336887193
H           -0.76898968000657       -3.71353859918130        0.14798876637131
H            0.73795089219048       -3.37523275498423        0.74486856847326
H            3.23310058583336       -2.81755444853767       -1.14102997039449
H            1.51074647221473       -3.00322358674463       -1.26116247517677
H            4.19288036045267       -1.19706763482961        0.03565715010691
H            4.48093060890437        2.02900623870001        1.55450465034559
H            5.04153768041457        0.40007000338770        1.64713779689510
H            0.09111285137750        2.71223068412251       -1.55042868894084
H            1.66713331308379        3.43118394910844       -1.30369650904331
H           -1.13740312602017        3.17408128185517        0.09378407367168
H           -3.63475308163039        3.82110899530438        0.59250226581555
H           -4.81519879244549        2.61362588216029        0.61359207250103
H           -4.15162779161143        0.09069903552165        0.24199066380555
