32
 energy: -59.165351133483 gnorm: 0.000636824080 xtb: 6.6.1 (8d0f1dd)
N           -5.46325264243250       -0.11550529399804        0.80631950457522
C           -4.34480865516169       -0.02226059531495        0.55719567749807
C           -2.96996464858750        0.07830032909211        0.25754445259704
C           -2.44189772823374        1.35820921358734        0.30240435252187
C           -1.15085418020008        1.79382270824832        0.04288421342797
C           -0.97303866826187        3.19961648754848        0.04985603303916
N           -0.88228658078187        4.34337595521395        0.05420800794879
C            0.04679714528409        1.05237470158374       -0.13908172784528
N            1.10528182162996        1.82492572543526       -0.33827946008087
C            2.34836244912005        1.34875536245502       -0.32565329100851
N            3.32600355161428        2.24567122908331       -0.60796543074777
C            2.58319837389429        0.02217989378530        0.04218248934972
C            3.74047798795816       -0.72673335082277        0.33242713844516
N            5.02192712522706       -0.26599980998336        0.38096882665472
C            3.33592553016765       -2.06592515000597        0.56227646279226
C            1.97453169052188       -2.16018300458660        0.42818409089449
C            1.45111924460573       -0.87025316902691        0.11063708796442
C            0.15371374605537       -0.39959792513351       -0.08032595131296
C           -0.93293551754159       -1.30636137173008       -0.29304417646148
C           -0.58026374016702       -2.58685944193089       -0.76834687154885
N           -0.39683194413158       -3.62596547770832       -1.22874382838271
C           -2.31750066518850       -1.13208721643418       -0.13504482540543
N           -3.12578487795921       -2.19731654658529       -0.34175580808891
H           -3.15281559309139        2.14145796447504        0.54534144634223
H            4.20843268841008        1.90983488834105       -0.95319000926696
H            3.00006734280650        3.13597465242132       -0.95116918147601
H            5.15644223193770        0.71002309931999        0.59260769662097
H            5.70362341536202       -0.89019478002389        0.78337842774784
H            4.00325499224596       -2.86737158115926        0.82071063369589
H            1.39884336388302       -3.05106418411164        0.58597861347202
H           -4.12107680010631       -2.10408744422644       -0.23121499616768
H           -2.74185418367789       -3.08479313661213       -0.61827932059602
