28
 energy: -45.878892562905 gnorm: 0.000816142502 xtb: 6.6.1 (8d0f1dd)
N           -4.01611875639965       -1.43199998887402        0.66092285461657
C           -2.81493734792958       -1.04248873938592        0.17283943995120
C           -1.84485387628356       -2.04025497533945       -0.10178303174911
C           -0.51257902696436       -1.81177500003731       -0.27414452126971
C            0.23963477654998       -0.62173994317269       -0.12599306777544
C           -0.27268895678381        0.71864054471277       -0.02504534163615
C            0.61621553262230        1.78633851605866        0.24610840844999
N            0.11593919357206        3.10506360760224        0.40401109795172
C            1.98571376133784        1.58981861094303        0.34275803660925
C            2.52631527241610        0.33085641809253        0.14393127709464
C            3.80957591687120       -0.22858892724576        0.14319785026995
C            3.61571508178858       -1.58574692218562       -0.08020935841037
N            2.32415559749097       -1.93282577114270       -0.21669148228956
C            1.63141486951504       -0.78936077375092       -0.09272571110259
C           -1.64834915739466        0.98075497841617       -0.35656267890579
N           -1.94642912498521        2.13968178044530       -0.97395126385869
N           -2.70778969137848        0.24090711522345       -0.08724086421442
H           -4.23358257465785       -2.40553712426268        0.76613811722296
H           -4.73934391060195       -0.74521844875518        0.77779618932758
H           -2.20121519031506       -3.06140465110217       -0.13498885461875
H            0.12253985246214       -2.67167798825105       -0.44935559216368
H            0.84577161677493        3.73044805464124        0.72285103842876
H           -0.67849742492061        3.15298589814514        1.03028994236633
H            2.62690290082025        2.43572410235556        0.56064258844653
H            4.74560438763576        0.27664842847331        0.28792121366043
H            4.37641444877740       -2.34524050211184       -0.15069321280742
H           -1.22720201592783        2.83354801666476       -1.10258415718511
H           -2.90979911469212        2.33966585174309       -1.17758996220929
