29
 energy: -51.201327627043 gnorm: 0.000806675916 xtb: 6.6.1 (8d0f1dd)
N           -4.82588370784141       -1.59553724027855        0.22488103434382
C           -3.83213515904156       -1.01804577195789        0.16970944922846
C           -2.63052903783785       -0.29075540505605        0.08817637844628
C           -2.75998305355351        1.07402819888400       -0.29925425778181
N           -3.88790885524534        1.47376231663896       -0.92106911111105
N           -1.91851682692756        2.04164713425243        0.01859039106206
C           -0.66319009647314        1.95933099249179        0.35302192635109
C            0.26381331121773        0.90752695226850        0.19524234030937
C           -0.09935984078701       -0.48507444146497        0.11344177456444
C            0.89984579610178       -1.43634078824576       -0.10249214492083
C            2.25271450431404       -1.10353459372572       -0.21995205358899
C            3.18826511249414       -2.12798771618177       -0.48016383717379
N            3.93422543304727       -2.97641441053767       -0.68077708319077
C            2.65742488818882        0.21383152689037       -0.05520593941692
C            3.90578853658322        0.84413614604162       -0.07135948739563
C            3.68577962412131        2.20050319582707        0.11458693829705
C            2.31062421604126        2.45361770044206        0.24674520038231
C            1.63350954193097        1.24286419573794        0.16184981360767
C           -1.43471863115966       -0.97025522352868        0.37278336385952
N           -1.55522520131634       -2.22477193908237        0.85410622025842
H           -4.65731393287491        0.84043574814059       -1.05386495077743
H           -4.02328281896571        2.45993596829846       -1.06141530493727
H           -0.25731312178780        2.90641965205305        0.69129579404438
H            0.63677881921599       -2.47538042145824       -0.24389817464478
H            4.85293709285442        0.35693094884149       -0.20795158758580
H            4.45191389679897        2.95485898990169        0.15283780220634
H            1.88091712279785        3.42845893891784        0.38435339819824
H           -2.46839142710544       -2.62423135326413        0.99380799811629
H           -0.74591853219136       -2.75987330704550        1.11033302064935
