29
 energy: -55.225137462573 gnorm: 0.000758108012 xtb: 6.6.1 (8d0f1dd)
N           -5.44727722600991        1.27637848219729        1.27379618991606
C           -4.43274605504345        0.83001110182599        0.97124609762986
C           -3.20587962884097        0.26505648672729        0.60326758114961
C           -3.03280350570635       -1.06364208868937        0.15636396537020
C           -1.67474946283592       -1.25681007603349       -0.06835718466004
C           -0.91958466148229       -2.33324345532501       -0.58728426057403
N           -1.49490920030510       -3.42892569026889       -1.10358578786912
N            0.40933822153855       -2.32128846392107       -0.55151404118856
C            1.06942814898505       -1.25603150710444       -0.12469326256009
N            2.30694339077586       -1.47198208929623        0.25589728102113
C            3.25941265304294       -0.60290311466018        0.52728449324476
N            4.24110944206286       -1.03766564021651        1.33858090711623
N            3.45367936478742        0.59805694259519       -0.01950372996383
C            2.50094875365247        1.39210657341060       -0.45121456624926
N            2.91962337984625        2.48602876692986       -1.11418859247725
C            1.08604465467684        1.25893920708328       -0.19859329714888
C            0.36875821788022        2.46353254014957       -0.32881886026839
N           -0.12494047969576        3.49297947240590       -0.46912408709032
C            0.39525288822300        0.06518294506646        0.01815100470797
C           -0.99243355679717       -0.01893108254969        0.21765798982216
C           -1.96682446868253        0.91078681802637        0.62373061767113
H           -3.82588752069786       -1.77812915182567        0.02898392256610
H           -2.49042633524678       -3.55097113054726       -1.07068081293134
H           -0.90104088307308       -4.17829843615801       -1.41443721173989
H            5.07546892272486       -0.48727936507243        1.43353821301474
H            4.22904508763326       -1.99833135496650        1.63116651166944
H            3.90928914436790        2.62892049088606       -1.21313390698807
H            2.27706393835840        3.21633147962629       -1.36912016450496
H           -1.80128341933898        1.92346273180598        0.93712452841528
