26
 energy: -43.235719746154 gnorm: 0.000739071208 xtb: 6.6.1 (8d0f1dd)
N           -3.23704932571266       -2.69674130308273       -0.00338621045575
C           -2.71589393673333       -1.67300960245548       -0.00211730805138
C           -2.13962266242974       -0.37767144292793       -0.00213031739809
C           -3.11027273209307        0.61680326153494       -0.00157741793917
C           -2.96544340759381        1.99444553447276       -0.00109170870377
C           -1.77751119362568        2.70937366905057       -0.00092926595535
C           -0.48006687401426        2.23701452889288       -0.00120065987476
C            0.04832600787169        0.93704586961946       -0.00178641434620
C           -0.70958601929091       -0.31118296187071       -0.00230868056804
C           -0.02907925732667       -1.52308978160295       -0.00293957862760
C            1.36630910612434       -1.65048778536338       -0.00313279741650
N            1.94289154245224       -2.86631784366637       -0.00393607310686
C            2.11948940948615       -0.46899840274132       -0.00260650588836
C            3.48282893130709       -0.17256319233262       -0.00252280409790
N            3.69276606316886        1.15424132871076       -0.00184156693772
C            2.50510919238048        1.74612246561101       -0.00149936876620
C            1.44655594384130        0.80657689706372       -0.00193346961490
H           -4.13117024409294        0.24993450003760       -0.00150161065559
H           -3.88063789078785        2.57105763757715       -0.00079250693201
H           -1.87973444237239        3.78775546387672       -0.00050430219437
H            0.27955898137101        3.00760069444613       -0.00093478542727
H           -0.60552820910618       -2.43768979863511       -0.00332698005450
H            1.37954099433367       -3.69817548103969       -0.00378942147528
H            2.94290647295603       -2.94963698944773       -0.00354310328345
H            4.31872112146037       -0.84921685539200       -0.00290651895135
H            2.45017589232626        2.81943913546429       -0.00091563337765
