34
 energy: -62.610289808150 gnorm: 0.000538196200 xtb: 6.6.1 (8d0f1dd)
N            5.53515348098265       -0.29126694171026       -0.60257932188401
C            4.42552051670761       -0.04596492112465       -0.41512754726340
C            3.08082925589134        0.26419916436178       -0.15943408094551
C            2.83016144858953        1.51888222663583        0.47145730544868
N            3.82118460614831        2.11215805318065        1.16432762796789
N            1.72998820454413        2.22761609039767        0.32387662791503
C            0.54839281904669        1.84034532296898       -0.07180284045963
C           -0.03440399958133        0.56201057027175       -0.08196622838424
C            0.72321481163346       -0.67851299544657       -0.08298942306759
C            2.10967754239135       -0.70120312244776       -0.48269123673818
N            2.53527241227083       -1.76339072296169       -1.19249338871415
C            0.04861655495430       -1.89511212072456        0.12976914782132
N            0.74096523267201       -3.10661619176576        0.23350567757047
C           -1.35717658083716       -1.94233406019265        0.22584036492952
C           -1.99349292788231       -3.16659973561390        0.49478182364726
N           -2.49027362335340       -4.17692603225915        0.72899232926516
C           -2.12130232332649       -0.78865579191924        0.05019850919220
C           -3.49784364933967       -0.57817467759746        0.03836826126015
C           -3.71496893538589        0.79012617981967       -0.10962367623516
N           -4.90578990068080        1.42892069571379       -0.13994202287655
C           -2.44740686731780        1.46282908161818       -0.18613072189442
C           -2.36064110119477        2.83982898155812       -0.34293839180067
N           -2.37763363500285        3.98504970267018       -0.48288951326864
C           -1.44058629352262        0.48911719618175       -0.10391547415616
H            3.67300882057320        3.05446633498326        1.48267608692655
H            4.74971256271201        1.72595739072119        1.16695291098439
H           -0.11028996509266        2.67334401165818       -0.29394401915722
H            1.90594357229336       -2.52405679201410       -1.39061472728834
H            3.50129944500773       -1.83029280320891       -1.46724982394664
H            1.61225958035834       -3.06466904987385        0.74313743900333
H            0.15354192032851       -3.86724252387170        0.55023369722549
H           -4.25502215807258       -1.33310264911149        0.13157515994413
H           -4.92930800457934        2.40848577308327       -0.36545419629787
H           -5.75227507683509        0.89578401631966       -0.22549018582276
