30
 energy: -54.929352583360 gnorm: 0.000896641124 xtb: 6.6.1 (8d0f1dd)
N            4.64117594657940       -2.51372577982911       -0.77747225455637
C            3.71482963179706       -1.86257542006459       -0.57651108411027
C            2.63737699509545       -1.00524384916373       -0.34255224967693
C            1.28326094520062       -1.33337124163450       -0.32132538975711
C            0.54104054275071       -0.15485219200639       -0.10565794652808
C            1.49458555688980        0.92632406689061        0.02456529056876
C            1.00714364274226        2.19997766618860        0.33570126090252
N            1.80978407898903        3.23638390513777        0.68824362813108
N           -0.28906560861856        2.47083022298670        0.21644610602344
C           -1.18588365758524        1.52633790594144       -0.04670569214438
C           -2.44066153485796        2.02813245634439       -0.43550341943749
C           -3.60137118335590        1.34220346096759       -0.72796468525959
N           -3.95976659093452        0.11056369270437       -0.44649694189871
C           -3.21075123681539       -0.84546343819533        0.08595168806007
N           -3.93575462765908       -1.89228685487450        0.53439771612750
C           -1.78609939885463       -0.93121377800864        0.14633917076386
C           -1.33048150252188       -2.21493709091668        0.49805192707447
N           -1.07689508364705       -3.28719549572193        0.83417698721195
C           -0.83676381722739        0.10206909384564       -0.02205235359279
C            2.78417015731586        0.39670259520384       -0.13141290391796
N            3.97561815112129        1.06415376554797       -0.06998518492157
H            0.89717229566152       -2.31957236514749       -0.48780574236933
H            1.33445502109830        4.06368275504977        1.01208796290975
H            2.70586196721178        3.02813343715733        1.09532812008943
H           -2.45080017150693        3.09976907261694       -0.58100554503399
H           -4.40167081195836        1.90701324062021       -1.19779172028502
H           -3.49787380633751       -2.73582272062679        0.86205350566567
H           -4.93051162265447       -1.85820985151985        0.39551513948341
H            3.97605503789096        2.02691645154245       -0.36994981558071
H            4.78192545549201        0.53050085946321       -0.36128487224235
