27
 energy: -46.954440427293 gnorm: 0.000378345623 xtb: 6.6.1 (8d0f1dd)
N           -5.61283614122327       -0.18543120482844        0.23740984105013
C           -4.47075466883966       -0.09532093442564        0.14954840453808
C           -3.07122645898178        0.01076647507869        0.04199450518790
C           -2.29492739414143       -1.04300879142520        0.54976025660136
C           -0.93880540754003       -1.23135386365058        0.42209448781875
C            0.05754713503277       -0.32829980383751       -0.00274452627669
C           -0.20784851234210        1.12019618787217       -0.15674861194715
N           -1.35129091078045        1.59760902733625       -0.62802209432796
C           -2.55204207404627        1.11938274118987       -0.65661408369997
N            0.73433489057563        2.01977045848214        0.04459421154780
C            2.01638994467723        1.66207114057377        0.18459620284174
N            2.87233475691365        2.65840010025196        0.48492755104912
C            2.42301016850344        0.33615334556933       -0.00863640215662
C            3.66329231471230       -0.31319112517576       -0.03212576194041
C            3.44819979984137       -1.68061325151453       -0.17744983911434
C            2.07462949954953       -1.93193460694500       -0.22370702945146
N            1.48564950936166       -3.15898590090319       -0.35056271989006
C            1.39715383160956       -0.67795538042082       -0.10513708000049
H           -2.85116290022810       -1.84524305489050        1.02195261651591
H           -0.55750763508568       -2.16922353025241        0.80833776613672
H           -3.25103414655155        1.70559900567208       -1.24816130653313
H            3.86331990439787        2.50597959671155        0.45123978514152
H            2.50884154083385        3.59530450286162        0.50597145334425
H            4.62801794938937        0.15601627888078        0.04185288641056
H            4.21389836311530       -2.43168488256583       -0.24711005824416
H            0.55662042602584       -3.18370987762769       -0.74054041443976
H            2.09089413302071       -3.91072759001751       -0.64194644336161
