26
 energy: -43.231354574876 gnorm: 0.000239046030 xtb: 6.6.1 (8d0f1dd)
N            3.11183686881462       -2.73872070872355        0.01813198650560
C            2.74703772957048       -1.64527472870228        0.03149646709576
C            2.33426232889388       -0.31631980737518        0.04676998000339
C            3.20759081168127        0.77710807716987        0.12921329689244
C            2.48336629001902        1.96686995100005        0.12609062572811
C            1.12903913370534        1.64210666222591        0.04351459102278
N            0.08286852694216        2.45928747919018       -0.06365665525955
C           -1.11664161594879        1.93397645915999       -0.12366103230990
N           -2.15179949596638        2.84663491250409       -0.21047278218751
C           -1.40054230742941        0.52077247823681       -0.02575050444365
C           -2.71998161771209        0.15018784958367        0.18792776175124
C           -3.32901711406813       -1.10285886270505        0.27533031813678
C           -2.77368062983873       -2.34582226768582        0.07486672595232
C           -1.42998385961546       -2.64620596421926       -0.17702905084867
C           -0.35235592361092       -1.79954274090125       -0.19828385089238
C           -0.25666510132460       -0.39204183442765       -0.06600074034241
C            0.99997992855506        0.19543480654534       -0.00040842087891
H            4.27824102137820        0.69324507168923        0.18712477182838
H            2.88959623079837        2.95843388212340        0.17334779900398
H           -1.80205782717631        3.78824130510567       -0.31795167290391
H           -2.91216962012696        2.62637630202945       -0.83425477759480
H           -3.40007781176443        0.97909585157186        0.34128330603927
H           -4.38937937986443       -1.08273484084148        0.49453274337600
H           -3.44693767611088       -3.19181204307939        0.12705986187592
H           -1.20565346371479       -3.69454588592051       -0.32788875188183
H            0.60729916171379       -2.28156844685375       -0.33787316076853
