29
 energy: -50.421127832492 gnorm: 0.000607103694 xtb: 6.6.1 (8d0f1dd)
N           -3.46607119658337       -2.77258912012904       -0.38598010052043
C           -2.78719037383665       -1.85454890360265       -0.23783939719035
C           -1.97440430906769       -0.71588184116604       -0.07142879555024
C           -2.63333182210889        0.52047559145406       -0.21984225389898
N           -3.94739329728244        0.49384264869551       -0.55026706470806
C           -2.08427057984636        1.77457530349927        0.06778456540208
C           -0.77150690026529        2.15535175892064        0.25257543654394
N           -0.57138669529594        3.44914370574234        0.61787483597834
C            0.41627509338784        1.36491008730295        0.01405213282611
C            1.58804825301238        2.08143602766803       -0.31136487452721
C            2.83336709612173        1.50926572375044       -0.44133590079358
C            2.95084006302042        0.15516075424457       -0.17603421017241
N            4.01556094067289       -0.67560877517794       -0.16254200876592
C            3.49208862501165       -1.85371785012563        0.13781592865675
N            2.16573691420660       -1.89094470211642        0.32534945325451
C            1.76997952584255       -0.60914442366252        0.13365282688880
C            0.47849662742179       -0.04940877734190        0.16118974144984
C           -0.62272538105045       -0.97707651085332        0.27027635334380
N           -0.30462211814752       -2.22198954676065        0.61342162629878
H           -4.40926420686889       -0.38007764426479       -0.73434982473209
H           -4.45903078142204        1.34878583580999       -0.66836609210853
H           -2.81295025165103        2.57470198274921        0.14737808172738
H           -1.36471240247000        4.01922911476765        0.85335901595436
H            0.32997734372361        3.74084485849052        0.94856730816359
H            1.49886634712409        3.13507198012397       -0.53310988611910
H            3.69138159992181        2.09748179004622       -0.72730906660914
H            4.09363011637102       -2.73946431122489        0.23540177177179
H            0.72239678561619       -2.44958539133828        0.62662424861496
H           -1.00725693315845       -2.94408778590150        0.57747388562074
