34
 energy: -62.604708653452 gnorm: 0.000883343723 xtb: 6.6.1 (8d0f1dd)
N           -4.67596755467141        2.69253389034448       -1.06110657491407
C           -3.83856340720707        1.97622250859930       -0.73273755873211
C           -2.82461295400045        1.08633836713613       -0.32225266738250
C           -1.61382586671342        1.69292479862970        0.03823033465047
C           -0.36838442449746        1.16132157908156        0.29324817263533
C            0.71319539524170        2.09910915060688        0.53059712218772
N            0.44798932141388        3.40966639654691        0.81781058994408
N            1.98462986794502        1.80286843213317        0.41530525583667
C            2.31048641346090        0.55875421817594        0.07269902883342
C            3.57271101900651        0.03048714394882       -0.16544139013106
C            4.80071869092099        0.68258630306420       -0.18082887358921
N            5.84735419641398        1.16103030161418       -0.21487376548107
C            3.40091210265449       -1.37087435337795       -0.45001814882999
N            4.43247616394908       -2.20706015502748       -0.72344048606342
C            2.06032204353042       -1.70494475294516       -0.32807450204095
C            1.33471977799869       -0.53549637794640       -0.01040776403709
C           -0.00848769573588       -0.24508516846338        0.20690722304527
C           -0.94735069497729       -1.30656030382002        0.45849722931261
N           -0.41812678149982       -2.43877735720070        0.95689211584405
C           -2.33823218791748       -1.30678994582600        0.23958218417853
C           -2.99164349523624       -2.53002440458632        0.48854868028859
N           -3.53005035818074       -3.52565884415635        0.69908824898093
C           -3.17827882412532       -0.27568399443245       -0.25865100612776
N           -4.42843743067567       -0.61983046480077       -0.63285019013827
H           -1.66352390368998        2.77513488508515        0.01201875732574
H           -0.36185333813123        3.64751907713936        1.36380147513284
H            1.27887838075608        3.94997582049902        1.00242543502674
H            4.23552047291879       -3.11352120464205       -1.11034150530099
H            5.32824325822551       -1.79697583946460       -0.92850850185561
H            1.66003189375039       -2.67588973792424       -0.55942369418069
H           -1.00816357931040       -3.22083530330921        1.18817707272664
H            0.55964250055579       -2.45977311043038        1.19555760855064
H           -5.07860692140654        0.09252283605056       -0.92057690686415
H           -4.74917548686209       -1.56842649329949       -0.53482112863387
