26
 energy: -47.269150110448 gnorm: 0.000702340445 xtb: 6.6.1 (8d0f1dd)
N            4.30587123258826       -2.33597327855589       -0.28246834717676
C            3.31555308421922       -1.76386076139227       -0.19069094316436
C            2.09961985031940       -1.05615070088061       -0.08325891165987
C            0.90820544183440       -1.72783117826379        0.09630675196983
C           -0.33967026187544       -1.06807474393362        0.17437015410146
C           -1.46807532075022       -1.89023645035856        0.42301482933760
N           -2.73818643155456       -1.67497522192123        0.28369084673430
C           -3.29937278930659       -0.51168663659716       -0.09660088095379
N           -4.54676250710888       -0.64568435043937       -0.57620369663952
N           -2.86548939890352        0.72630212884994        0.02676783023887
C           -1.62080222396429        1.14004725770561        0.21590981551948
N           -1.46790627859430        2.43300323730136        0.45022643081208
C           -0.39240158939565        0.35968607097525        0.10279774537293
C            0.81862435215244        1.03945611424807        0.00341274089155
N            1.02669758544045        2.38073947266992        0.00766187312655
C            2.34416754272883        2.55382200886178       -0.12340847078483
C            3.05014100779679        1.35143941361858       -0.20858227361969
C            2.08872024574534        0.35127284653780       -0.12531518357944
H            0.91877022371276       -2.80674632004900        0.16092036462812
H           -1.24690283476245       -2.90698325502568        0.74022994667343
H           -5.07782868514416        0.17410512906965       -0.80922882897117
H           -4.96586824609530       -1.55806434762346       -0.59854460225981
H           -0.48895626174736        2.80205763664783        0.36822988397513
H           -2.29058194146733        3.01349093424503        0.46501680899761
H            2.75276819965314        3.54895325056758       -0.14435959478524
H            4.11082180467863        1.23161767533962       -0.30824196268556
