29
 energy: -46.386419997030 gnorm: 0.000871173591 xtb: 6.6.1 (8d0f1dd)
N            3.61614458372713        2.33150893482961        0.47547536376841
C            2.73123439181903        1.61795078774707        0.30478713455864
C            1.62395618495700        0.76832438707149        0.11711859799506
C            0.32663748221558        1.30148092024723        0.14880795182546
N            0.19590868067413        2.69789685366880        0.32706330897950
C           -0.81500961163589        0.48186530910946       -0.01712647156190
C           -2.07183739333900        1.09770158619890       -0.33917020398914
N           -2.03441246190887        2.29446800832503       -0.97128675028400
C           -3.36498802808327        0.60777084388153       -0.08816705849039
C           -3.78227371058681       -0.62358585189499        0.35357344657335
C           -3.00726913059574       -1.77267590752770        0.49194667017750
C           -1.66260256152773       -1.90895882613935        0.25051950819414
C           -0.64447167500473       -0.96176988287987        0.01810961419208
C            0.65939814002433       -1.47095552208843       -0.12117070269777
C            1.16152021268327       -2.77246729229679       -0.24843884530779
C            2.55401791346291       -2.70348310705001       -0.32228259811828
C            2.96855700183205       -1.37891678940601       -0.22306895004559
C            1.82099523469584       -0.59406169291269       -0.09957378015841
H            1.08610122321788        3.13189959241566        0.54055168197947
H           -0.50156665383207        2.95304137880561        1.01426706269671
H           -1.15300356874416        2.77197078174071       -1.08530333058117
H           -2.89083329329782        2.78145618476088       -1.16724669803157
H           -4.15107047342128        1.33233864533342       -0.27309889444936
H           -4.84165672062497       -0.72950101610199        0.54838900958564
H           -3.53821750916566       -2.67237826227972        0.77525111725538
H           -1.29065214015005       -2.92196790828532        0.32275094432773
H            0.59408474516005       -3.68288916409899       -0.31316698714490
H            3.20618286510099       -3.55058093891178       -0.44319531000821
H            3.98049420335054       -1.01871388676272       -0.23470024854092
