28
 energy: -46.704929918640 gnorm: 0.000401496589 xtb: 6.6.1 (8d0f1dd)
N            5.51211431708532       -0.54243243209946       -0.03680205011166
C            4.43050953166553       -0.14992858929679       -0.02383407224521
C            3.12179350655786        0.32356579435960       -0.00908871050241
C            2.70321532585285        1.66161039507170       -0.00041470460915
N            1.37866381339586        1.78175135404195        0.01226858862263
C            0.86085474427672        0.52158741724720        0.01137810008481
C            1.93027881537737       -0.43703324881434       -0.00096150546047
C            1.64447580176891       -1.79759654511148       -0.00030181631803
C            0.32902837134896       -2.17610280585980        0.01087155666944
C           -0.75711993667489       -1.26372450963570        0.01809626257551
C           -2.03089194600425       -1.88868169985237        0.02674374634862
C           -3.29814504821566       -1.39923228359825        0.01885437951929
C           -3.72023622335762       -0.04802973472067        0.00151977979371
N           -5.06386711457607        0.16191268324836        0.01439755878500
C           -2.89299213079214        1.05874287841081        0.00447220215730
C           -1.49582198140315        1.18976314809861        0.02287336611190
N           -1.02727111518335        2.43694303371574        0.03804907206033
C           -0.49566059961197        0.14178484056310        0.01805900456027
H            3.33103652111792        2.53514706467558       -0.00253159923336
H            2.43899095644492       -2.52942050507583       -0.00736466749238
H            0.09431505437423       -3.23099554649258        0.01274928978085
H           -1.97344693406251       -2.97139619166232        0.03695647284210
H           -4.10025177081934       -2.12747238904319        0.02514444665759
H           -5.69371987447103       -0.61132445839722       -0.10039731928722
H           -5.43208187552128        1.08922214934670       -0.09846860787945
H           -3.41736147806112        2.01045929553893       -0.00382073335713
H           -1.66482888833854        3.21461805537234        0.03681002486071
H            0.01573442742656        2.54997507276936        0.03424997896641
