30
 energy: -55.712743662260 gnorm: 0.000906841654 xtb: 6.6.1 (8d0f1dd)
N            5.08489034784778       -0.24586192898662       -0.40309283807816
C            3.99290005407081       -0.53477121760002       -0.19976756056692
C            2.65305081334012       -0.91383004381504        0.03281654061098
C            2.42788818770353       -2.05113579413120        0.83320747464871
N            1.39617616099608       -2.83357741292338        0.77017614883937
C            0.22762409332268       -2.65538465867341        0.19461206591719
C           -0.45409251944304       -1.46137746888056       -0.04017256213674
C           -1.88905946453037       -1.48998448397039       -0.16444570619604
N           -2.56141124726144       -2.68043438633685       -0.26400798131914
C           -2.61646522678547       -0.30655340596153       -0.06580658337313
C           -4.01991353984445       -0.33433332332835       -0.16920939381140
N           -5.16292608387940       -0.37815266549138       -0.27555505862920
C           -1.95591383821821        0.92496554395297        0.12937172523980
C           -2.42981634094720        2.21191026156421        0.31410042761927
C           -1.32750328911078        3.07669389954436        0.39100896833462
C           -0.14957689773996        2.35879613566878        0.20879356544905
C            1.13542623872069        2.88434670546772        0.30181202780721
N            2.20715742168833        3.30437080659798        0.35718457093440
C           -0.50686642285230        0.97176305615440        0.04281714217702
C            0.23100835266900       -0.18334979688549       -0.10632047475935
C            1.63369824005946       -0.10820471567082       -0.49934015817922
N            1.96073018784822        0.83858713807059       -1.38553387994075
H            3.23162454421792       -2.39864848405781        1.47290410462938
H           -0.30653764951626       -3.59184717524541        0.07962575489922
H           -3.55779029607045       -2.61070301700602       -0.40285954695801
H           -2.11892904025482       -3.46327327057708       -0.71224142439088
H           -3.46053010730504        2.49832508976087        0.40325932652327
H           -1.37516743667807        4.13585972836214        0.56854354501912
H            2.93247759205829        1.04392951461571       -1.56564871341614
H            1.27956280559487        1.52456596818078       -1.66947857209363
