32
 energy: -58.370019665648 gnorm: 0.000600699121 xtb: 6.6.1 (8d0f1dd)
N           -4.41101886420555        2.70746302795149        0.57757274208441
C           -3.65459155327105        1.86136647473316        0.39303007948660
C           -2.76119958214006        0.79258129537228        0.17490287242173
C           -1.43040432791012        1.12140378244044        0.00789355482230
C           -0.27686425797261        0.33993584028716       -0.07973816546482
C           -0.15654620747483       -1.11027115561316       -0.07054074717191
C           -1.27862893238769       -1.94625880776685       -0.39163608089817
N           -1.02013266272518       -3.18055676003942       -0.87852446430644
C           -2.64307936517651       -1.66147770900741       -0.25475222427816
C           -3.33590799642674       -0.51032074538236        0.08633638488156
N           -4.67257790475208       -0.60530489399904        0.27100234564725
C            1.11823149249818       -1.68064375846020        0.14462353111593
N            1.27575318168485       -3.06517492199062        0.32745287933984
C            2.29877287919075       -0.90783836844767        0.17002970610196
C            3.53628010721464       -1.52794150260022        0.41644209285918
N            4.52194549016963       -2.07767875931506        0.63544344133973
C            2.22421184912539        0.46750530693313       -0.02648519129135
N            3.15590739331664        1.42252428515713       -0.05684152546991
C            2.43149291193930        2.55392450445924       -0.16777170683962
N            3.01466144226431        3.75846330943301       -0.27655240240775
N            1.08696882789893        2.41029688490195       -0.19681538447403
C            0.91364240061773        1.08507467818321       -0.12649396286962
H           -1.20724383355735        2.18313371926663        0.00502012113145
H           -1.77465723550719       -3.75488656279923       -1.20969114483949
H           -0.06791641185569       -3.45416791546546       -1.06443044261468
H           -3.28457002783589       -2.51697435299711       -0.44569703439174
H           -5.21628602601824        0.22169162609791        0.44996200504477
H           -5.14488030915955       -1.48445948766510        0.16312187503555
H            2.22535142625638       -3.30657255598587        0.58545365912418
H            0.60377698288243       -3.48222077882779        0.95736511859646
H            4.00203766746514        3.81829304672943       -0.10608983389529
H            2.43796619814877        4.57550006411991       -0.19196961722091
