26
 energy: -48.035256649017 gnorm: 0.000947788232 xtb: 6.6.1 (8d0f1dd)
N            4.63180927220102       -1.51645905367809        0.05541279018684
C            3.52530866794857       -1.21909739959312        0.04182750308285
C            2.14979476313560       -0.89567738747365        0.03582915908239
C            1.19691155918394       -1.89648376198172        0.09692462199490
C           -0.18299946499316       -1.62628940641462        0.09007566439987
C           -1.05622110031762       -2.74620402051099        0.07460327666860
N           -2.25441292034526       -2.82635601064029       -0.40171470569426
C           -3.12049019054620       -1.86843583208509       -0.66814489835439
C           -3.14086447306957       -0.61328800688437       -0.10042069426967
C           -2.03349002591817        0.05851902019126        0.44688695805806
N           -2.26518560444765        1.13135751788337        1.20638847868682
C           -0.65487293479868       -0.26955940794383        0.14666184076055
C            0.30051802152934        0.74237157820138        0.02262138212860
C            0.26305263007755        2.16111113073835       -0.12859161071988
C           -0.83642817814575        3.00404931732749       -0.24169171925271
N           -1.75655118201954        3.69347406346737       -0.32285949448490
C            1.60364674281624        2.55617639894357       -0.27126422537109
N            2.45816856107143        1.53929608835294       -0.20090323479825
C            1.71902305622491        0.43586862349808       -0.05324345779598
H            1.51803243227701       -2.92746791802002        0.11818783388491
H           -0.63477030767868       -3.70248487554580        0.37462840774235
H           -3.96498031549891       -2.19244457943702       -1.26455807904709
H           -4.07752121608065       -0.07079524496312       -0.09558956807750
H           -1.50585041498981        1.71566913460778        1.51786721893050
H           -3.19764714827147        1.50033711419732        1.29968159586199
H            1.95696240375591        3.55967909026277       -0.42403600680336
