26
 energy: -48.033439012180 gnorm: 0.000568542343 xtb: 6.6.1 (8d0f1dd)
N           -5.12869957101080        1.28657425731260        0.67688223117542
C           -4.08120077507107        0.84865090386862        0.50731659448545
C           -2.81258985318883        0.28710794435707        0.30446469963729
C           -2.56952639443777       -1.09261171791957        0.10243411773857
C           -1.19909897511901       -1.25917673990733       -0.02301659992739
C           -0.37664941225529       -2.37899020393113       -0.25697588711032
N           -0.86787855368954       -3.59820541130584       -0.51606217607714
N            0.95072229475016       -2.27678236695161       -0.18986713246285
C            1.55678876776148       -1.11006432683349       -0.01179941892092
C            2.92097738842190       -1.23007730147136        0.31099751313886
C            3.86026464105110       -0.24447760153494        0.55110571122216
N            3.84664884061357        1.02898765287165        0.21564633403064
C            2.82976602637878        1.70459754227169       -0.25505279951610
C            1.45936655845064        1.40619930200153       -0.25998677514072
C            0.67484870278290        2.52132588386464       -0.64195365981986
N            0.13105941600538        3.46450093855146       -1.00492333048637
C            0.81892973439988        0.16318214543166       -0.03038016339588
C           -0.57000082101787        0.04323580394731        0.07743870984846
C           -1.60539221048464        0.98172869066474        0.27918152393251
H           -3.32910899001973       -1.85203415326553        0.06798400070724
H           -0.22441709923018       -4.35847567770270       -0.65283314535400
H           -1.85758510116679       -3.76253752632199       -0.53572486754435
H            3.23539928211663       -2.25567055591169        0.45597744342324
H            4.80014901490524       -0.55298575198658        0.99864872080600
H            3.10062360482884        2.69486363188330       -0.61173266758721
H           -1.50113681497467        2.03818236701830        0.42896942569427
