28
 energy: -46.686578093956 gnorm: 0.000387772284 xtb: 6.6.1 (8d0f1dd)
N            5.45084669322220        1.55087128141817        0.31393114566915
C            4.39581825655599        1.09990024686435        0.23731042932024
C            3.11553578142719        0.54620105250204        0.14361128858169
C            2.82936357541893       -0.82952384813208        0.04324450784285
C            1.44479910595322       -0.96630705210826       -0.01857261852172
C            0.61706975543116       -2.10003923061524       -0.12410498364946
N            1.13781586851720       -3.34151978417785       -0.21996506139793
C           -0.76404587502913       -1.90560967686671       -0.11548088184531
C           -1.37557599995880       -0.65821254061441       -0.03336768529246
N           -2.70381332877050       -0.72162209582507        0.08541639844459
C           -3.62532543802523        0.20835238749534        0.09118602008019
N           -4.88090127339295       -0.27186425602236        0.30302393887480
C           -3.51118750885785        1.60204470695307       -0.16709215445106
C           -2.34356305966577        2.30791805835818       -0.27665208526717
C           -1.03002592962071        1.84731313290467       -0.16618387036943
C           -0.53911983335104        0.55479603034612       -0.03257460455378
C            0.85648651554471        0.34828972886643        0.03457979788583
C            1.91426414665629        1.26531014616201        0.13504537173070
H            3.56926566677622       -1.60956036386098        0.02157904172804
H            2.12957985413903       -3.47687421389809       -0.15052979767232
H            0.53564596806220       -4.14485114699800       -0.22884191894374
H           -1.41632006022407       -2.76576536947593       -0.14718841862631
H           -4.96992578814045       -1.24045947493852        0.55362088105085
H           -5.65310905571073        0.34837512488949        0.46043582932487
H           -4.44294626377531        2.14437845400286       -0.26095854098892
H           -2.44585351067881        3.37281824991270       -0.44936843251272
H           -0.27413633398960        2.61844343763247       -0.23205187438758
H            1.84940623898650        2.33486141852563        0.21182432114599
