34
 energy: -62.608628383447 gnorm: 0.000533455867 xtb: 6.6.1 (8d0f1dd)
N           -5.00924470448913        1.30445858615642        0.67351335979825
C           -3.94663298753323        0.92410770530793        0.44155328389811
C           -2.64674792203046        0.46729173381174        0.16290042457196
C           -2.44582089676586       -0.93016003297504        0.25625710155528
N           -3.51945796455662       -1.66186331336633        0.64426462787196
C           -1.26479160965231       -1.63443392292797       -0.06094025594599
C           -1.45837731551487       -3.02867077669650       -0.14378681498948
N           -1.68004562264658       -4.15613225894765       -0.22394572226019
C            0.08463063662168       -1.18724680000446       -0.18006634024468
C            1.05632836875940       -2.16751431255020       -0.37577489226113
C            2.43027960450021       -1.93277048384107       -0.30600891443204
N            3.31602385641612       -2.92395886518512       -0.54448185367684
C            2.83231803979598       -0.64173670615895        0.06039442161292
C            4.06857904331887       -0.07267410394510        0.38818512401888
N            3.94920267560287        1.20242733813028        0.75208843013172
C            2.65154983251808        1.53542413262630        0.63564178510745
N            2.26607876233407        2.73256653293371        1.11149383294921
C            1.86355293466769        0.41288499444012        0.17636544998342
C            0.50739862091669        0.20089844714994       -0.08002997980662
C           -0.34128425864251        1.30094229876930       -0.40296319179117
C            0.31327822536628        2.41475481049031       -0.94793723646752
N            0.79982753479918        3.34596494790557       -1.42484944297498
C           -1.73943350449021        1.44843821584596       -0.29549662070589
N           -2.26309135676722        2.66400126851592       -0.59064710159155
H           -3.47101120345305       -2.66622687352033        0.65053661318604
H           -4.41007047990416       -1.21576059180203        0.78310182858830
H            0.73350363794001       -3.18228190697530       -0.55746923582000
H            4.29279676312346       -2.77460274285634       -0.36972084684102
H            2.98791491121713       -3.86346161880713       -0.68199908001967
H            5.03747720693495       -0.53937681726445        0.38776492888549
H            1.41706645324048        3.17230158488837        0.80082051584123
H            3.02940687695227        3.33806024509436        1.37063127090796
H           -1.67673681601881        3.40034460963957       -0.94281596665285
H           -3.25689045055944        2.80879561361917       -0.54669388942791
