31
 energy: -53.842835595875 gnorm: 0.000433325863 xtb: 6.6.1 (8d0f1dd)
N            1.60618925257539       -2.92317012293349        0.91130092593798
C            1.60663309128187       -1.82888395009875        0.53871062648743
C            1.68723709968963       -0.50806634190965        0.09245222060041
C            2.98960090720468        0.06793764817265        0.22317664286429
N            3.94097458743667       -0.65169696966768        0.86299845858441
N            3.43746755939141        1.20273968674488       -0.28707730245344
C            2.66524357397038        2.14749311282235       -0.79857384852582
N            1.41620190631059        2.42258145730024       -0.61809476650428
C            0.42343847889671        1.63481431056218       -0.16922538469705
C           -0.75591854383052        2.26741358388023        0.17727943035377
C           -1.97294975903503        1.58420423859017        0.31160008954809
N           -3.11325385690434        2.27840015789649        0.64651730035479
C           -1.98346836760908        0.22217413307766        0.03894014649545
C           -3.04155034652278       -0.72787882455177        0.00666659181669
N           -4.34909530947085       -0.48930463874689        0.35854461759199
C           -2.53219368126881       -1.93277835437777       -0.46782840553697
C           -1.15447557159326       -1.80629779013867       -0.67324527547415
N           -0.40747540356302       -2.74342929348872       -1.30491324760978
C           -0.76406382533504       -0.47332558893882       -0.30497075704850
C            0.46868555861848        0.16901438129018       -0.20436945236387
H            3.76192792998705       -1.58121506578159        1.19931044672021
H            4.87206162484986       -0.27549727484733        0.87838004876292
H            3.21276480773733        2.88739281193153       -1.37969988074558
H           -0.73846104131200        3.34403386566503        0.25898693846581
H           -3.02218170366407        3.28276669952386        0.61012959043891
H           -3.97212782199853        1.93024952724656        0.24993327788566
H           -4.91475559017754       -1.32209010074352        0.43705105615168
H           -4.48126024488049        0.15662621404435        1.12267891064032
H           -3.10235762446480       -2.82654650718897       -0.64503720505352
H            0.59364368029012       -2.72457553885584       -1.21207444510352
H           -0.81705654391396       -3.65890795457825       -1.39255595228395
