28
 energy: -50.683281277196 gnorm: 0.000790043788 xtb: 6.6.1 (8d0f1dd)
N            2.99737043751837       -3.17653695740390        0.37123371194924
C            2.55668828523615       -2.12142913404160        0.26964230104550
C            2.06759749656176       -0.79987939720763        0.15542841953220
C            3.02682763173405        0.20600342716078        0.29020823796809
N            2.96732762425902        1.49541370490419        0.09718199691880
C            1.86836508832300        2.20366907366408       -0.19500709407491
N            2.15667923272364        3.50118387054278       -0.47701579635226
C            0.52225221123815        1.83395242115067       -0.14315003638668
C           -0.06523856627400        0.57362149218802        0.00076088753991
C            0.66093921368842       -0.69631178656229       -0.03119408372959
N            0.05841146014977       -1.86394842057281       -0.17845131986376
C           -1.27344294669772       -1.97827837487695       -0.23765476590021
N           -1.74135422561723       -3.21645018965786       -0.46264595883022
C           -2.08897699648732       -0.85696158932359       -0.05461220902281
C           -3.46496687053584       -0.61144169497446        0.02692571858259
N           -3.72470511075275        0.68017541418109        0.23366648109770
C           -2.54544745104518        1.32540312165905        0.27960533505945
N           -2.51730191649947        2.67558831694052        0.48455081030903
C           -1.45616919135538        0.43142036488783        0.08694995822337
H            4.02773103773305       -0.13417259677109        0.54768030625677
H            1.45804297211366        4.11834492505822       -0.84899176168591
H            3.12752835478368        3.74165227978013       -0.57666154185572
H           -0.17324873151365        2.64779991166483       -0.30479657148016
H           -1.07527228406567       -3.96770490376710       -0.51939393004155
H           -2.72580020381449       -3.40858245595892       -0.44279282033434
H           -4.27265545104452       -1.31755247751239       -0.04123886143211
H           -1.73899583409037        3.04108603316265        1.01175062539328
H           -3.41885515726925        3.04896406548508        0.74493524011434
