28
 energy: -52.271874324710 gnorm: 0.000746280072 xtb: 6.6.1 (8d0f1dd)
N           -6.01990999274259       -0.42160399432652       -0.53872582076117
C           -4.88827809860822       -0.27444228817203       -0.41510376458061
C           -3.50742066781527       -0.09028892744405       -0.25745523555234
C           -2.86573270326121        1.15555326863087       -0.12165418617235
C           -1.49759004220316        0.91268449885093       -0.00023335888691
C           -0.41395916744065        1.77589656640159        0.20911682579865
N           -0.57211917495579        3.09607330102621        0.36143542952427
C            0.89072316948206        1.19988107434677        0.22567862668848
C            1.94415993094801        2.10207724460412        0.48290310513673
N            2.68317742990135        2.92367399686772        0.79844904308103
C            1.12240549078153       -0.17163398079481        0.06758815010945
C            2.43802277582685       -0.61553577549816       -0.24830959691620
C            3.35268193682911        0.33003489083734       -0.77575852486147
N            4.12241677131534        0.99417676036270       -1.30807045058430
C            2.95459192627285       -1.91440325328862       -0.23014845461348
N            2.46688628066736       -3.00763673026688        0.30398417636599
C            1.21945466815894       -3.21932652319152        0.65314654330657
C            0.08703884320886       -2.45439333423262        0.39743953719017
C           -0.01423110610282       -1.09249571496204        0.09539452262436
C           -1.28955672706995       -0.51668070280458       -0.04782096392060
C           -2.55229035718370       -1.11094778226070       -0.20312918970695
H           -3.36631265349463        2.10632689389308       -0.11585481647183
H           -1.48981323564786        3.50264544059888        0.32086926718383
H            0.22628870046748        3.69382217696580        0.50446655513615
H            3.95635659522391       -2.03701045507398       -0.63223165976118
H            1.06729060305577       -4.18181472595416        1.13177567935247
H           -0.85704053354216       -2.95926139535706        0.55269508370308
H           -2.77151506296836       -2.15778667745582       -0.29825111391252
