30
 energy: -54.140799770610 gnorm: 0.000566947231 xtb: 6.6.1 (8d0f1dd)
N            4.23071355655955       -2.00765679031321       -0.45456485259009
C            3.28293718629645       -1.37507764634571       -0.30493647693397
C            2.07255013815812       -0.67833075586023       -0.13170222122888
C            0.88311213027616       -1.39838536892684        0.01853494284974
N            0.93759372493145       -2.80797821505892        0.03846071314016
C           -0.35504961526050       -0.73405816879837        0.17695402157588
C           -1.55459697290309       -1.49747928352897        0.46568702166469
N           -1.45224652935964       -2.59036021652742        1.23461246638434
N           -2.75040658737941       -1.25398133001400       -0.02444198459460
C           -3.18138270010041       -0.09444091438559       -0.49677652955846
N           -4.19714913414360       -0.13217655349726       -1.37772313788542
N           -2.83323360948958        1.09942452665844       -0.03470219035528
C           -1.64860316238450        1.40150240281535        0.44527593998689
N           -1.57306548968687        2.51961214559451        1.17513027738274
C           -0.40833091349589        0.69320932816665        0.17371730262396
C            0.77199727972775        1.41838484702902        0.00995223741389
C            1.12216684044586        2.78000361468297       -0.09024807447694
C            2.49434013047807        2.79879682365649       -0.27503445539417
N            3.05553800735990        1.57422339514730       -0.28793297227959
C            2.04631392126179        0.72194953704660       -0.13909631169147
H            1.87454484030284       -3.14010529432791       -0.16176464504467
H            0.26713443713688       -3.24914625267009       -0.57910847296089
H           -2.27239748469843       -3.15311167488304        1.38136534830244
H           -0.53699513320743       -2.93424508885450        1.48332797839631
H           -4.67011286025488        0.72312295102048       -1.60700255460263
H           -4.61712130330713       -1.01597038689310       -1.60132433242417
H           -0.67369499455136        2.86095854745889        1.47066029019598
H           -2.40060321728028        3.07598738366821        1.30362729522064
H            0.47915291039207        3.64112642828683       -0.10065700172532
H            3.11717300897650        3.66796180365300       -0.39759661549350
