24
 energy: -43.000681858966 gnorm: 0.000706176107 xtb: 6.6.1 (8d0f1dd)
N           -2.95138850155502        1.98518078076169        0.84754564686355
C           -2.33710399251686        0.95381985643254        0.23431484510776
N           -3.15894723824163        0.05967912559589       -0.32242320768179
C           -2.75354967909261       -1.12516252905600       -0.72550659615926
N           -1.70827918778371       -1.83622843858786       -0.40335372989153
C           -0.55069904367846       -1.40258279211642        0.09032090257295
N            0.31494217129357       -2.31727739661947        0.48401115365537
C            1.61156014052571       -2.03995332649076        0.55966808025677
C            2.12370955411464       -0.83347105935565        0.13280723109521
C            3.42828139364426       -0.27370930519482        0.06217837188595
C            3.32471498889363        1.07310340372848       -0.20197133186012
C            1.95479844319813        1.42180841285185       -0.30708268878835
N            1.41059500508514        2.62825877991905       -0.53623467392525
C            1.19510925057440        0.23711161616959       -0.13104747339213
C           -0.17256714312176        0.03535814016371       -0.00502340209581
N           -1.01774988967414        1.05662166169290        0.11457025433580
H           -3.95437244718225        2.01997294109876        0.83390198610305
H           -2.41587391081083        2.76805913647626        1.17494503019501
H           -3.46970942162329       -1.64514676845091       -1.35922215060621
H            2.23610732038330       -2.83481242544714        0.94731038367381
H            4.34133037531731       -0.82009395124716        0.21251047478282
H            4.14129527304079        1.76329412900703       -0.31260026282348
H            1.96936079386361        3.46198453236537       -0.48062521503125
H            0.40756524074592        2.68387182340342       -0.43447907877302
