33
 energy: -62.122993666913 gnorm: 0.000435933908 xtb: 6.6.1 (8d0f1dd)
N            4.82703279160657        2.20128451859315        0.45238162879110
C            3.91298229691117        1.51267319695344        0.32487488537522
C            2.84947877195400        0.62708567500800        0.18347926442101
C            2.97575465409611       -0.78402617051779        0.17408670038062
N            4.14864630790627       -1.46288989733695        0.23096301578827
C            1.69791587813403       -1.36745409202672        0.02481979865570
C            1.47190953020933       -2.73412559511306        0.05572084451579
N            1.30450313022505       -3.87713594094437        0.07530624956637
C            0.74343670158580       -0.31086108319555       -0.05896644460136
C            1.48146083454441        0.93159370945774        0.07117424757144
N            0.89729239409337        2.12187609738825        0.09581014691976
C           -0.41208909463888        2.18336283183840       -0.01062180322190
N           -0.93948117338636        3.48007809472461        0.03674670907262
C           -1.25274656471935        1.05003815435722       -0.18027301238768
C           -2.67436094486707        1.20508554531521       -0.36737682195547
N           -3.12899485494403        2.28389257530253       -1.02079538871566
N           -3.60062563359747        0.42129914079167        0.15087271131919
C           -3.41772892727305       -0.82679661090757        0.55307486961537
N           -4.27256041696417       -1.30668750553208        1.47107436593561
N           -2.59433370868976       -1.70285312450780       -0.01251894159471
C           -1.42946781643820       -1.42520975295416       -0.53759460099330
N           -0.92591553436141       -2.30761901836551       -1.40350946095733
C           -0.63382632716969       -0.24101180401232       -0.21682235596369
H            4.97301469983106       -0.95659460144985        0.50682438038194
H            4.12278021647375       -2.45141713849094        0.41575180372416
H           -1.71432176098639        3.59417349149683        0.67733428329555
H           -0.19051583724976        4.13031350042814        0.24480704291790
H           -4.12224235565048        2.41952634942681       -1.09449080028476
H           -2.48154053988648        2.99297791274480       -1.32622346263340
H           -4.27114460818326       -2.29143365492460        1.66688147901915
H           -5.02960270968288       -0.72774447512298        1.78607550489404
H            0.04330401361468       -2.25548214221899       -1.67111853560223
H           -1.39621789269695       -3.19215837100595       -1.50939139114923
