31
 energy: -55.454998381647 gnorm: 0.000173128536 xtb: 6.6.1 (8d0f1dd)
N           -5.23823251065115       -3.11944872596117        0.00041027864795
C           -4.37810503815611       -2.35783981203146        0.00026672672426
C           -3.32814700249441       -1.43157345260920        0.00012173506938
C           -3.47115139932984       -0.03566285078596        0.00011686719809
C           -2.18751866043939        0.51560862250613        0.00009880079239
C           -1.75812645399865        1.84770262669274        0.00011503432737
N           -2.62407474653088        2.87464484162859        0.00021187608319
C           -0.35927525891267        2.08310022807580        0.00002852654725
C            0.03022505271001        3.43530893451939        0.00001627092030
N            0.25901849422592        4.56285369059587       -0.00010274688561
C            0.60930369439800        1.05742113263284        0.00000165829783
C            1.95338451291961        1.47584871729603       -0.00015268484705
C            3.13396237957532        0.77254537456265       -0.00020252549824
C            3.36134553581180       -0.60373182311736        0.00001020941510
C            4.71423053109001       -1.00488440747851       -0.00009059279774
N            5.81127734910684       -1.34658696289126       -0.00027607118984
C            2.38728221742970       -1.63214654283332        0.00032443307052
N            2.83406560276318       -2.91141055357125        0.00077368862145
C            1.00086955105561       -1.44850471556985        0.00030497537462
C            0.17080208584085       -0.33269735337632        0.00011325857324
C           -1.22808669334453       -0.56085922748175        0.00008655068066
C           -1.96332950449005       -1.75416754445968        0.00008202884222
H           -4.40942412881507        0.48839485399617        0.00014971793686
H           -2.29154841563899        3.82443455377239        0.00019837206179
H           -3.61212816355975        2.69763029206121        0.00028228470775
H            2.07808904986330        2.55270748566531       -0.00029020110632
H            4.03513945934209        1.37487578450091       -0.00041128704832
H            3.82024546746783       -3.10741120229049        0.00037915590014
H            2.18722931495018       -3.67902365678414        0.00049556746331
H            0.46024268645524       -2.38714637089986        0.00051678668217
H           -1.59165773804395       -2.76207866196447        0.00006896113530
