32
 energy: -59.169554172553 gnorm: 0.000759027787 xtb: 6.6.1 (8d0f1dd)
N           -5.37521072394371        0.24455780372967       -0.10572749624887
C           -4.22521650757154        0.17661257059059       -0.08558035672416
C           -2.82674462569639        0.07131252111519       -0.06756472743966
C           -2.28770759765771       -1.20846801840161       -0.37245313335589
N           -3.10502409840418       -2.13752593578772       -0.91416987614151
N           -1.07743284209313       -1.64753001609187       -0.11397683536944
C            0.06341354689945       -1.03390968815134        0.12205401659155
C            1.13536243053556       -1.90025391430974        0.46856193266573
C            0.83435872675860       -3.24447194226492        0.76073562469718
N            0.62465487828764       -4.34563333718126        1.01005404158810
C            2.46307561659597       -1.48329927553387        0.44476789942415
C            2.73951620566331       -0.19287045747741        0.05395917060356
C            3.97389477088122        0.49110430542192       -0.15297114984226
N            5.20392137535132       -0.02944228491556        0.00580814034905
C            3.66907195930956        1.80355309758099       -0.56954360557291
C            2.30107451631717        1.96458043390885       -0.59297194620676
C            1.67689707764117        0.74848884784780       -0.19753749383707
C            0.33572674106886        0.39453589526454       -0.02819619150939
C           -0.67628694780161        1.37719160080652        0.15819732319412
C           -0.23940499548169        2.68555930318235        0.44617646341831
N            0.01381578515719        3.77231780557535        0.73181338759968
C           -2.08682709505569        1.23694429566559        0.23542654308067
N           -2.80916500957461        2.33250770598259        0.56685756411649
H           -2.75165483723548       -3.07662713833138       -0.98645121160523
H           -4.09330145248540       -1.96965559008294       -0.99662179368645
H            3.24257586583140       -2.19503061439768        0.68073381670160
H            6.01705311057583        0.54196078132156       -0.13651033419406
H            5.32203229935892       -0.97532892719195        0.32037006617640
H            4.39637431013183        2.55012709854568       -0.82909071495796
H            1.79692841282382        2.85671337656098       -0.91066656474171
H           -2.35469782402312        3.20911286382585        0.75596850880058
H           -3.81287341677014        2.27979924638959        0.59739939822912
