32
 energy: -59.163803280161 gnorm: 0.000435446133 xtb: 6.6.1 (8d0f1dd)
N            6.02632624263068       -0.17407677230604        0.49594934214563
C            4.89474164104565        0.01053696486125        0.40750981102127
C            3.50882247484277        0.22760977177723        0.29864381964870
C            3.04649687484717        1.48627482365244        0.71627321120390
N            1.90743410428286        2.06792217677587        0.52414655605233
C            0.73187145080680        1.57635594435258        0.12454518681046
C           -0.22978430824788        2.52668030571651       -0.19592776745628
C           -1.58822465636314        2.22914815578088       -0.33057460825817
N           -2.48109996116421        3.20354145188793       -0.65433740271226
C           -1.99334249274966        0.92505132094439       -0.01101356420696
C           -3.26386363166639        0.34677087963447        0.15143448978622
N           -4.48375949766978        0.95328773190661        0.06639816321772
C           -3.06759593354280       -1.04196758031995        0.42359721275248
C           -4.11612151767751       -1.92631598723911        0.68848546602898
N           -5.02111686815136       -2.59934833212946        0.91172352499194
C           -1.70546391961885       -1.31429816815991        0.42972750497878
C           -1.00646347259623       -0.11377630746980        0.16820756791171
C            0.36505848166078        0.15453291865756        0.08403233936507
C            1.29902686237319       -0.86899008101168       -0.20275564497672
C            0.77669083068830       -2.08771612442075       -0.68854575990243
N            0.46142204972890       -3.09699004863164       -1.14240938518132
C            2.71995733423636       -0.83762204109775       -0.20133598243858
N            3.38032439151444       -1.92963210418700       -0.64215227556764
H            3.78041014052046        2.11943227717513        1.20951318307838
H            0.10149699745305        3.55022351267484       -0.28525570193672
H           -2.10588967075820        4.07641146290266       -0.98882143098695
H           -3.36523819375134        2.92174767578737       -1.04355801338662
H           -5.26719595716559        0.38078512627454        0.34724646269744
H           -4.54300127694066        1.91786082690477        0.35377451081390
H           -1.27843460627026       -2.27080897202285        0.66081736192643
H            4.38540991062307       -1.95483231423816       -0.59991738571679
H            2.87933686728422       -2.74674545423125       -0.94803426720217
