30
 energy: -54.142622058430 gnorm: 0.000518937572 xtb: 6.6.1 (8d0f1dd)
N            3.44503709517475       -2.79455610679257       -0.01883891270115
C            2.88820765186238       -1.78393383565860       -0.01489319686605
C            2.27553237890830       -0.52324361022067       -0.00872354906137
C            3.17710049922125        0.57056816590666       -0.01638932412492
N            4.50073901618057        0.29982347725246       -0.02831286926294
N            2.93515400612839        1.88294944111509       -0.01086580186536
C            1.75126369642084        2.45844277350119       -0.00184219879260
N            0.51841266849342        2.04010762418404        0.00026622763884
C            0.07968009541292        0.75061571283196       -0.00244546138432
C            0.84503727998871       -0.48232780303043        0.00218106652631
C            0.15603963002937       -1.69429492172511        0.03364733240952
C           -1.23689417568329       -1.82981247551072        0.04372261094016
N           -1.80985222020182       -3.07570270393785        0.06551648582977
C           -1.98410149367630       -0.65522837116626       -0.01832652880185
C           -3.35982063948140       -0.30313346580733       -0.08354956988546
N           -4.42519377301793       -1.14114375772977       -0.12187726769766
N           -3.54938058774573        1.03185653031234       -0.07795880514330
C           -2.33336196166250        1.59017765655826       -0.03413874113840
N           -2.07280853341937        2.89016986521382       -0.02391581844752
C           -1.29290997464580        0.59367254819370       -0.01220770522056
H            5.13204111391061        1.08102731694113       -0.03702792512624
H            4.84714728176232       -0.64350013917524       -0.03806840948502
H            1.82799895568823        3.54770127431406        0.00362925455311
H            0.74051962649631       -2.60433596699781        0.06310958061897
H           -1.18756786249695       -3.83954557511788        0.28038755924735
H           -2.72486516406701       -3.14912571587450        0.47832090470480
H           -4.29433279113454       -2.04902621292489       -0.53692346981056
H           -5.30643625617716       -0.68885426610957       -0.31038265675879
H           -2.80941907171029        3.57252108286863       -0.04737800877585
H           -1.07617935555841        3.10907702228595       -0.01302073081873
