31
 energy: -58.656945972037 gnorm: 0.000960561672 xtb: 6.6.1 (8d0f1dd)
N           -5.56399729228556        0.51879321307420        0.00008442454926
C           -4.41620641714664        0.41475473465612       -0.01045208265931
C           -3.02307539870642        0.28483950794303       -0.01647647709729
C           -2.47035122405686       -0.97981905776963       -0.35956143445511
N           -3.29662008580295       -1.91997903129576       -0.86645900985416
N           -1.23431258608502       -1.40075855785584       -0.17967091327021
C           -0.11539247725422       -0.73095642130357        0.04237951611853
C            1.03489180363863       -1.50784004976242        0.28797575434478
C            0.87631789227123       -2.87965284336040        0.54790692284243
N            0.81219996195503       -4.00348789358654        0.78436420096082
C            2.34947059055593       -0.98134959710525        0.23725632625238
N            3.41525493204917       -1.78693929464221        0.46774840006235
C            2.48039090892540        0.35913922716292       -0.12467622863597
C            3.57881001125885        1.22491675232213       -0.34236374834510
N            4.90781817041758        0.92354383245825       -0.33407670768526
N            3.16962056792219        2.49797572497844       -0.54340708713254
C            1.84466220528412        2.49726641560616       -0.47389531149785
C            1.32555696404220        1.20760839023639       -0.23422029509889
C            0.02222102888991        0.73514859644171       -0.04509005003855
N           -0.94809337126502        1.60689733047251        0.15089220128335
C           -2.24504128331814        1.42254111578373        0.32383036843828
N           -2.88576374716120        2.50749908998590        0.81038886122608
H           -4.28811091977468       -1.76165039301059       -0.91620827501759
H           -2.92848187867419       -2.84812560041752       -0.98281694497461
H            3.23481337470844       -2.71129080768671        0.82778183447179
H            4.29809198738571       -1.36425444875080        0.69696994423601
H            5.18199641307083        0.02015114835042       -0.68731298264491
H            5.49317135271450        1.69196161884237       -0.62722631578357
H            1.28717818257696        3.40354512627263       -0.61604159003180
H           -2.34770778367667        3.34036836516165        0.97023250732747
H           -3.88660747046512        2.52269859180056        0.89880896900753
