30
 energy: -55.716977538812 gnorm: 0.000981405909 xtb: 6.6.1 (8d0f1dd)
N           -1.51929994932954        4.11639780156860       -0.09186760067341
C           -1.34537413339560        2.98277250285745       -0.06339914524921
C           -1.18360621851533        1.57477963151783       -0.03246578258036
C            0.10476088131338        1.12506925310185        0.15940494043293
C            0.65360737482278       -0.16814430065695        0.06392524178073
C           -0.08641901286607       -1.40168129855862        0.00704565385008
C            0.62885214001302       -2.58550010868083       -0.26902623794817
N            1.93334977284918       -2.69329149635588       -0.39541201088389
C            2.65625890384291       -1.60448381483153       -0.22615319756171
C            4.05463916497330       -1.45357360739031       -0.25206190301546
C            4.33362298190403       -0.11873802178158       -0.06868320453637
C            3.12482098997163        0.61877152255734        0.07945463868938
C            3.08647644000252        1.99686751407760        0.28290844811509
N            3.07267260109839        3.13596560663502        0.45484864507539
C            2.05536059244455       -0.28578982997920       -0.00353941761950
C           -1.48858112365782       -1.52797720900664        0.27859257410456
N           -1.91279410809106       -2.71971089145013        0.73946237968263
C           -2.49397941499275       -0.55975235743954        0.04700895362810
C           -3.81972657605679       -1.04586532800650        0.09271421654128
N           -4.89981609074297       -1.43759303696566        0.13105439190917
C           -2.38168609837053        0.82187225788085       -0.20880928236506
N           -3.49286101578101        1.49981068239516       -0.55551299085398
H            0.83753727343954        1.91236898847309        0.29317062846818
H            0.09605956028450       -3.50928243393936       -0.46000969854207
H            4.76214790349789       -2.24622435566761       -0.39561553288544
H            5.31086261941696        0.32883001739462       -0.03419888310587
H           -2.89506399140744       -2.89367250060504        0.87822898498864
H           -1.25708629964951       -3.45404805222484        0.93793277008939
H           -3.46127375923131        2.50170388372755       -0.65160785064121
H           -4.38158824977750        1.03069583836393       -0.61487637239944
