30
 energy: -54.132280170729 gnorm: 0.000560423786 xtb: 6.6.1 (8d0f1dd)
N            5.55730089650780        0.86561450220729        0.41077608103665
C            4.43012341397815        0.64448123183689        0.31670537291436
C            3.06756224699015        0.34348875367306        0.20498929262604
C            2.15499954982484        1.38407974725010        0.41123002196223
N            0.85949334561826        1.43617354835899        0.28230039683046
C            0.01559453930465        0.39031388623274        0.09306546144703
C            0.33464732773275       -1.04953276646145        0.08048556959312
N            1.53965366736905       -1.57255523053704       -0.14978294706106
C            2.71276851798936       -0.99135204823650       -0.19011268055758
N            3.70997298891604       -1.78715501014903       -0.63146734925579
N           -0.61770148544829       -1.95710700162380        0.21702967627573
C           -1.91649295409984       -1.64684419930136        0.21127200003909
N           -2.77195199706676       -2.69938172510733        0.40508189967086
C           -2.33773493933022       -0.34750584328544       -0.04596878563556
C           -3.59199410936535        0.31115971459085       -0.17809874733619
N           -4.80721735423201       -0.30880736060793       -0.21337744110080
C           -3.37282838887493        1.69464499803397       -0.20665421736938
C           -2.00275124147374        1.93979326468603       -0.12013518792439
N           -1.32428571981009        3.09543664809317       -0.12644278691616
C           -1.32897127389514        0.67101803897203       -0.04473246930386
H            2.59495397577400        2.34495025354651        0.67570100180216
H            4.66676111661219       -1.47909235028847       -0.61105918475022
H            3.48534868298827       -2.74375430147677       -0.84162572838911
H           -3.65769130146180       -2.49807315371365        0.84042316720515
H           -2.30731612764578       -3.53699583879878        0.72248935662301
H           -4.82047991812311       -1.25462330407124       -0.56063680607169
H           -5.58973859487159        0.26063494943344       -0.49520950634429
H           -4.14132410845907        2.44070852124656       -0.29393382871894
H           -1.79522970084584        3.97560802803619       -0.01094422101949
H           -0.33147609149775        2.99376045666021        0.06838450842897
