33
 energy: -58.088196622755 gnorm: 0.000542807130 xtb: 6.6.1 (8d0f1dd)
N           -5.31177848322639        0.01614461065253        0.13492118141434
C           -4.16270068520673        0.09993429892159        0.08558049360027
C           -2.76968514585571        0.22399429971605        0.02273601570477
C           -2.26000993824806        1.48736003410848       -0.42435112360211
N           -3.13047731034064        2.31172605662760       -1.06414455080379
N           -1.07525048905246        1.98357909462355       -0.22600164565950
C            0.09291575486572        1.41643567344688        0.08237193280798
C            1.10801962947704        2.28340724624700        0.45110987103855
C            2.45344581677794        1.89852008683879        0.50266456165126
N            3.40203149448251        2.77497416182436        0.92724215455206
C            2.77565075526985        0.61462891216508        0.05888235900241
C            4.01954325794525       -0.01026992184161       -0.16002640629106
C            3.79664802954795       -1.27303765539543       -0.67009555474954
C            2.41149077910742       -1.50240989412656       -0.75429877862103
N            1.88202426548603       -2.56461133931782       -1.41021652539093
C            1.73927118515077       -0.33238363641761       -0.26302003335797
C            0.39392923993114       -0.01672647051554       -0.04463278017765
C           -0.58123120951328       -0.99869916183355        0.26265211912435
C           -0.08319039281329       -2.25144771372452        0.65019449025238
N            0.28057700986362       -3.29400406009314        0.98481989132783
C           -1.99449102579358       -0.88200158981914        0.40002556400759
N           -2.66303442918985       -1.96914038690771        0.86251446009670
H           -4.11546929033121        2.10954401525287       -1.05305688187711
H           -2.82874735971493        3.25587245213000       -1.23039563550491
H            0.84020533450937        3.31222995574687        0.63879432468667
H            3.15263594167676        3.74389422351105        1.02464229584719
H            4.36764877085735        2.56115316566810        0.75172848309269
H            4.98653736763617        0.42001866614220        0.03187681956134
H            4.54880028442024       -1.97867087483871       -0.97166818229743
H            2.50777496131005       -3.33122620238266       -1.59562160138772
H            0.91880039059504       -2.81505114920601       -1.26922012956971
H           -2.16797764564774       -2.79380445312098        1.15269189291809
H           -3.66165949527879       -1.93000048428135        0.96966477830200
