27
 energy: -50.965872901260 gnorm: 0.000953177608 xtb: 6.6.1 (8d0f1dd)
N           -1.76326727835709       -3.20471612163187       -0.34398805396464
C           -1.67201390047615       -2.07062925416423       -0.16865513955328
C           -1.67650529305665       -0.67815172106594        0.02215933674920
C           -2.94782229317103       -0.04985341226603       -0.19993636283305
N           -3.89024157534624       -0.73939486209603       -0.87092268216893
N           -3.34885803037230        1.11427033029920        0.28435740476611
C           -2.55910267751209        2.01240522106798        0.83749469328623
N           -1.30218794207278        2.25791519920216        0.64182361596702
C           -0.35109621686796        1.45964422851132        0.17144791503880
N            0.74878142757215        2.05421092420450       -0.24256183599306
C            1.90196914106189        1.38921269698784       -0.34806051885251
N            2.94864340577821        2.08545256973157       -0.84547007510739
C            2.00008689768281        0.07659183761075        0.12072862605011
C            3.03348934261408       -0.86251590095855        0.31548098189258
N            4.37557767519227       -0.67912468418032        0.17878874085848
N            2.53473377359341       -2.07698060238211        0.64301644013734
C            1.21336060030568       -1.97254550661940        0.65956279258404
C            0.78084782944975       -0.65906791768809        0.36392807751530
C           -0.45460326252243       -0.01695100954537        0.24272761719705
H           -4.81173812524480       -0.34063777116440       -0.92527210413930
H           -3.74029247569928       -1.69812246153894       -1.13591942237819
H           -3.07694635867246        2.73687218553806        1.46119778023525
H            3.76134681888296        1.59146473987168       -1.16925137412612
H            2.73441781737330        2.98237830121399       -1.24950064523851
H            4.74429212723164        0.23368791221850        0.39405527698221
H            4.92618818095794       -1.45846392131183        0.50675154181860
H            0.60909810277536       -2.82209891794441        0.91505826527656
