28
 energy: -46.687699378211 gnorm: 0.000422962034 xtb: 6.6.1 (8d0f1dd)
N            4.77036657394461       -2.07637486439211        0.07613018794897
C            3.73274607681897       -1.58060240981509        0.03499692900531
C            2.49939460678462       -0.92831355268729        0.00508175775843
C            1.23596983822244       -1.52466296904146       -0.05103555165796
C            0.26861668337609       -0.50997980896856       -0.02737832381451
C            0.97829559768436        0.75530884729638        0.02100385464281
C            0.22275342173439        1.92998943999286       -0.04377000628310
N            0.78878529754941        3.16465167966430       -0.10270402355059
N           -1.10728043168588        1.90238242979701       -0.01555094379818
C           -1.79229170760807        0.75736846987089        0.01783398867885
C           -3.18446771378004        0.97029328768531        0.09122247156140
C           -4.24862976248832        0.09424045472003        0.09660846423798
C           -4.24035449056009       -1.29007370141655        0.01941526801989
C           -3.12690176346157       -2.11966716360448       -0.06427103621103
C           -1.79133166355245       -1.78686320477470       -0.08139199268959
C           -1.13688114708059       -0.54107303044264       -0.03458007117594
C            2.35118735208956        0.48503905341480        0.06398201306687
N            3.38877872554935        1.39085963884603        0.10665099607638
H            1.07222651183384       -2.58523324567141       -0.09449546418933
H            0.14966081617824        3.91999667183936       -0.29411199875480
H            1.71799375611213        3.24136944667505       -0.48067857728992
H           -3.42952157113302        2.02367076292094        0.14759477477816
H           -5.22746616248907        0.55432273224568        0.16328837160877
H           -5.20463892847283       -1.78107139825270        0.02763820525283
H           -3.34074974069952       -3.18092803194455       -0.11502027373862
H           -1.11402243271343       -2.62984549984443       -0.13463930895291
H            3.22653811716473        2.21770127363316        0.66253250163946
H            4.29255884728228        0.96980556735468        0.27336496293086
