27
 energy: -46.157495142322 gnorm: 0.000591409278 xtb: 6.6.1 (8d0f1dd)
N           -4.55616272347525       -1.61199822900831       -0.08296766806423
C           -3.36528132925868       -0.96114207560975       -0.02138225729354
C           -2.08965493634152       -1.56621913951898        0.09067372806399
C           -1.18055530817154       -0.52170698770380        0.05809085435053
C           -2.00446312539603        0.68267777477352       -0.08285291604244
C           -1.41481196840021        1.92228811785512       -0.16665972854659
C           -0.02580443558953        2.04699794432943       -0.07254179615828
N            0.51158270373557        3.32208545081171       -0.09939034896895
C            0.81209758025710        0.91969269802875        0.08534413774179
C            2.15650854054643        1.12519221543666        0.44806913799277
N            3.20316181540795        0.35086769714840        0.38644546773255
C            3.20018046850561       -0.93376785353411       -0.00946609822835
N            4.38328791518171       -1.37415553957009       -0.47984191235891
N            2.25441358640516       -1.84815523507480        0.11393586376292
C            0.96338575457990       -1.59647679315722        0.24786475303086
C            0.22542202279545       -0.42592130186457        0.09471274260735
N           -3.31093706347851        0.37603245729177       -0.12284938669918
H           -4.60444044688357       -2.54948164166296        0.27691526679185
H           -5.37525656015505       -1.03657764355300        0.01792175328222
H           -1.91003212734710       -2.62063932681003        0.17287000086938
H           -2.02554321067199        2.80448329239356       -0.29284848019388
H           -0.13292053498855        4.04496155050346       -0.37733857228645
H            1.43915799025572        3.43294120272472       -0.47141294353840
H            2.40591821722637        2.11447065065762        0.82645218207122
H            4.49667694688390       -2.35619798082523       -0.65675159619303
H            5.18090964704706       -0.76537455428488       -0.43855438054665
H            0.38973265972976       -2.50110020667719        0.42308315562158
