31
 energy: -54.652126718493 gnorm: 0.000595786996 xtb: 6.6.1 (8d0f1dd)
N           -4.17949899617800       -3.02943833871850       -0.01987805102897
C           -3.44877894426933       -2.14192803515263       -0.03042036294798
C           -2.59364908527317       -1.02346330503703       -0.03336695139738
C           -1.24501183674778       -1.23208459544097       -0.28203128112178
C           -0.14948492067285       -0.36284149747265       -0.17241431050555
C           -0.23093467392144        1.07186711243923       -0.04980782139295
C            0.91752851016053        1.82848611268801        0.23346329719770
N            0.84625281019192        3.22123637496259        0.39590324395651
C            2.17666777564197        1.22380843569071        0.31393822859211
C            2.30901328141937       -0.11964990978116        0.07214924887107
C            3.44709367921143       -0.97174364861361        0.04773470615516
C            4.76057731640453       -0.55956225887569        0.25074684161938
N            5.83861626144236       -0.19244878862572        0.42202552178431
C            2.98679928591442       -2.26535016879821       -0.20930118182261
C            1.59628254909121       -2.25348316307547       -0.34419927282840
C            1.14167605164408       -0.94482646077524       -0.18401892051996
C           -1.46722012512634        1.74593719885884       -0.39701214649097
N           -1.37973844092959        2.89398927942795       -1.08877617797743
N           -2.69014284215330        1.40155401343368       -0.07112253306873
C           -3.19341813591132        0.23566627802087        0.27051576364206
N           -4.40933044020453        0.25966818358107        0.85207427708877
H           -0.98307730918855       -2.26391769114622       -0.47803053765546
H            0.03759085464921        3.54555425861794        0.90829023164892
H            1.70106773821470        3.60383266287017        0.77680183743077
H            3.04457543087811        1.82984634982760        0.53749105681037
H            3.61301895174789       -3.13567324744466       -0.29501310433275
H            1.00432330985385       -3.12736789723847       -0.54637782721766
H           -2.22749763467217        3.37260407495401       -1.34058302730302
H           -0.47980307247545        3.29157900763810       -1.30060978727898
H           -4.87514039253892        1.14276000365596        0.96500432309585
H           -4.91987774580254       -0.59576938277110        0.99038697179710
