23
 energy: -39.258814319048 gnorm: 0.000296745200 xtb: 6.6.1 (8d0f1dd)
N           -2.06030697907672       -2.42163305872688        0.41495429244676
C           -2.10766920423698       -1.07715424753766        0.25479847110354
N           -3.29257864563373       -0.43385340768925        0.22245353304199
C           -3.04301731303869        0.85969646881307        0.02816192704171
C           -1.66564065915039        1.12325870254606       -0.05403617047705
C           -0.86741018809513        2.21844214369834       -0.34419439623786
N            0.44580884896254        2.16113152519914       -0.27306727009528
C            1.06534239921140        1.01145728298709        0.00768161562033
N            2.30348187036995        1.13625355703976        0.43796745512676
C            3.29260305813437        0.29445023957189        0.52585147081624
C            3.42345210204372       -0.95185302591899       -0.08328859455428
C            2.35710403385163       -1.73459897502983       -0.51905077972213
C            1.00653360335154       -1.48190337631622       -0.38984623538915
C            0.35535370758990       -0.28012611046704       -0.04433654182597
C           -1.02383224670385       -0.17124563358694        0.08621044679552
H           -1.22108338757301       -2.83222265760116        0.78932644848509
H           -2.93461129991810       -2.85246952496803        0.67124034153629
H           -3.85153447777253        1.56420457163006       -0.03634977852640
H           -1.28541393224674        3.18106918551273       -0.61139858662472
H            4.14171921329472        0.68046013002288        1.08320486171656
H            4.41616794389432       -1.37467553672962       -0.14909807278300
H            2.61684637305371       -2.70679793295656       -0.92171673032929
H            0.34101164328793       -2.28268686859288       -0.69114299006572
