30
 energy: -55.715298047218 gnorm: 0.000919783942 xtb: 6.6.1 (8d0f1dd)
N           -5.65475664868515       -0.93784134748330       -0.41155361640599
C           -4.54180934013594       -0.69127298488403       -0.28087282692120
C           -3.17075390157615       -0.38409065917032       -0.12807627042502
C           -2.82137176303551        0.96926185309765       -0.22383475355007
C           -1.58716224121029        1.56240686607688       -0.06574976353227
C           -1.65471583122909        2.97575587622264       -0.15030257101096
N           -1.76520573701839        4.11685692231773       -0.21689255483255
C           -0.26922294571076        0.99615104520963        0.08730192284577
C            0.77114521640621        1.89885962562823        0.24487684086972
C            2.13271598615076        1.55047948892840        0.23730038102154
N            3.08082000936955        2.50094597993235        0.42698569754042
C            2.43164764987228        0.22206281052662       -0.05043877805194
C            3.61896675175709       -0.49863612387899       -0.31038466072553
N            4.89527503211190       -0.04608427976731       -0.37006968732046
N            3.35345415393050       -1.81196594037824       -0.51614342629113
C            2.05129763241765       -1.97871461000475       -0.39432637727138
C            1.37449385707246       -0.75729584780018       -0.10871072599028
C            0.02784965883193       -0.42593878504933        0.05185144546668
C           -0.93461072183123       -1.46325858240996        0.25683071855956
C           -0.45969291944830       -2.72991983658749        0.67912671070241
N           -0.19644783716158       -3.76744430988692        1.09420876680233
C           -2.31808620133495       -1.44799586593303        0.16142755812757
H           -3.64724934543035        1.64884018465281       -0.40875883591286
H            0.53256329680919        2.94547765766138        0.36873188983649
H            4.00667813569203        2.21431154204366        0.69393434502925
H            2.78011175630731        3.40935556784861        0.74089674000430
H            5.56071654822638       -0.73037275390482       -0.69671265416325
H            5.05827355327203        0.90404164920565       -0.66117485703014
H            1.62529534484704       -2.94834760178425       -0.56355581688666
H           -2.80407377566182       -2.40502758533385        0.32222428680950
