33
 energy: -57.287230032623 gnorm: 0.000616922237 xtb: 6.6.1 (8d0f1dd)
N            5.18173787042499        0.33116738079097        0.16616540362992
C            4.05293586991363        0.09934893788304        0.12799369034434
C            2.68620611401297       -0.19740554600306        0.05304164219703
C            2.34638596401811       -1.50164251663029       -0.41523415836790
N            3.24653937464983       -2.17978384277063       -1.16076023855000
N            1.26800786714764       -2.15269212538810       -0.06352924143751
C            0.13718333009754       -1.67862331377992        0.43199387612475
N           -0.57667555771051       -2.57015231496550        1.13836957507582
C           -0.43956881618715       -0.39233581417519        0.17163056609384
C            0.35932188348916        0.80421177641495        0.10615386432434
C           -0.28559117069904        2.04132406012919       -0.14053942169170
N            0.46964435361730        3.23742001131022       -0.27868497560265
C           -1.66246715663254        2.13919064883496       -0.26531135478877
C           -2.45377803447780        1.01435879713007       -0.15379747307878
N           -3.78389173967832        0.91964189330694       -0.26865615955394
C           -4.05359965952555       -0.39578670834464       -0.17933228837664
N           -5.35140063936822       -0.83880635069543       -0.20294680114877
C           -2.91081850064955       -1.18670968882964        0.01700817034417
C           -1.83539994800279       -0.29205910415991        0.05123658610236
C            1.76744401156957        0.80373580568965        0.41843533151368
N            2.26774755722111        1.87537154262520        1.06419621127121
H            4.17787987263778       -1.81772655135169       -1.27261949643766
H            3.07266965556204       -3.15262870584596       -1.34292855126885
H           -1.47194193004223       -2.30680901764010        1.51118631267937
H           -0.22232395295934       -3.50315751690501        1.25173265016980
H           -0.13128829779213        3.99987057513021       -0.56676988588350
H            1.23977106027763        3.14508895804503       -0.93115904843360
H           -2.11923944677952        3.09716932105712       -0.46824525439284
H           -5.49763851591068       -1.78071018543287       -0.52887711912982
H           -6.00682749369779       -0.15770803301900       -0.55245606014710
H           -2.91599658160583       -2.26066507147432        0.05020005414001
H            1.67941857080803        2.68867734461356        1.17494112844763
H            3.26384400067219        1.96073884304919        1.18566164033223
