28
 energy: -41.878327710286 gnorm: 0.000639437329 xtb: 6.6.1 (8d0f1dd)
N            3.69881605658187        1.81444532016956       -0.05021671520687
C            2.84608959542810        0.73563335075557       -0.00926612359546
C            3.43428038345170       -0.53053222534486       -0.01909543157409
C            2.79293854405900       -1.75657740395775       -0.03699497208089
C            1.44657327542487       -2.04863462865346       -0.03582674420837
C            0.30412020019846       -1.22479099666615       -0.02357563619029
C           -0.92670192893946       -1.87890394174049       -0.00831539507951
C           -2.16042984201922       -1.22787969184352       -0.00276282268160
N           -3.31781424898457       -1.94380771859944       -0.03392448256233
C           -2.16691699809485        0.17121920124172       -0.01562193857004
C           -3.20847039039730        1.10611480901194       -0.01243346465131
C           -2.63882845676942        2.37723595279721       -0.02483083206429
C           -1.25565131419950        2.26075702971832       -0.03281589366965
C           -0.91849359276005        0.89273417052516       -0.02744170356799
C            0.33188587126862        0.23863169122819       -0.02605860486108
C            1.47900250089796        1.02696051215485       -0.01783695632264
H            4.66646394513716        1.66388845431774        0.17665390450786
H            3.32786216721901        2.72232693880932        0.17046873809162
H            4.51752984006164       -0.54983649381597       -0.01633063556885
H            3.45172855523514       -2.61734821456234       -0.04737913280957
H            1.21784774435334       -3.10894518110763       -0.04512510232092
H           -0.93019728303782       -2.96140470811778       -0.00211066214769
H           -4.17960848021746       -1.46073343538794        0.14634999395667
H           -3.28760749438887       -2.92871587823355        0.16497934585511
H           -4.26344352224892        0.89318593665627       -0.00620926047232
H           -3.18506624570993        3.30451020949880       -0.02740020882830
H           -0.57731188544942        3.09520445785142       -0.04411294727355
H            1.27206537459998        2.09056225059474       -0.01676303660369
