28
 energy: -52.269461889528 gnorm: 0.000532391627 xtb: 6.6.1 (8d0f1dd)
N            5.46588410814991        1.35159689866776       -0.05190077482204
C            4.34870311549064        1.10029725078534        0.01271911918217
C            2.97097806772789        0.80320356913786        0.10095349675477
C            2.13186544905445        1.78124206906506        0.68002938223883
N            0.85031647015947        1.88540964314536        0.55657318445004
C           -0.09413363419526        1.05684994060409        0.15818179179491
C            0.03816295730461       -0.41506776481550        0.14310229481593
C            1.27097913089948       -1.01097629048795       -0.23171444118833
C            1.21790260335861       -2.33612653699771       -0.74006297493139
N            1.24456399751707       -3.37455498801649       -1.22567939627388
C            2.53990558694632       -0.44336028655709       -0.34411453540199
C           -1.11081774989547       -1.18914173844877        0.31007227065084
C           -1.03901557984222       -2.55994586412547        0.62801641912659
N           -1.10000597044341       -3.65297058768618        0.97771056542733
C           -2.42744145490873       -0.63555427928047        0.20033555794700
N           -3.49750709318028       -1.42542614487963        0.36679709463836
C           -2.53506137493944        0.71972659087013       -0.12086804627072
C           -3.64376297029085        1.55437832887887       -0.33046421576298
C           -3.18195939296975        2.86367009533665       -0.48075411788132
C           -1.80197554478343        2.88433631862679       -0.34488392047370
C           -1.36323911968241        1.56177333899093       -0.12752459688478
H            2.60328434671366        2.59722490543558        1.22025419288977
H            3.30192083301593       -1.09033604598159       -0.76541558601066
H           -3.38239659425728       -2.40197746463094        0.58512200865753
H           -4.42176883922156       -1.05321380739661        0.24125401870557
H           -4.67458195093325        1.25083270614257       -0.36506296656316
H           -3.80420048710362        3.71949592958431       -0.66702870042242
H           -1.16311573400781        3.74451495725969       -0.40285161148381
