28
 energy: -51.478547169822 gnorm: 0.000951451562 xtb: 6.6.1 (8d0f1dd)
N            1.34443925512183        4.36069992454774       -0.61551673094058
C            1.17444822682553        3.23725230048163       -0.44539190940858
C            1.03453133239609        1.84843152282797       -0.25264471675762
C            2.20817391803838        1.08886495897048       -0.29092403407750
C            2.11040597809992       -0.25421917321750       -0.04357611052691
C            3.06364761652981       -1.30954582688870        0.10906146118795
N            4.39561657446285       -1.23057495351464       -0.00883384796482
N            2.45251868919122       -2.46763330535472        0.41266185236170
C            1.14173168104392       -2.23220313908792        0.43312485073608
C            0.82534364248045       -0.88496266634832        0.15165941186197
C           -0.37597831686142       -0.16018261246350        0.06071414530943
C           -1.61269941813779       -0.84251542844757       -0.05782907748451
C           -1.58887245365730       -2.21955335112836       -0.34486364576645
N           -1.70013769073950       -3.32942307400983       -0.63289581983510
C           -2.94170410665648       -0.31616970448583       -0.01904504016743
N           -3.96209617499643       -1.12623702891923       -0.36317612785290
N           -3.35159776111768        0.87485129759940        0.39765798510883
C           -2.61611834900885        1.95245499952769        0.55124230702115
C           -1.29088530181926        2.19487773983532        0.24694960403458
C           -0.24608692871007        1.28661296769120       -0.00993824859539
H            3.15296239795300        1.58146136201072       -0.47461190630312
H            4.93777031348019       -2.05956343527909        0.15940493925177
H            4.85126381118616       -0.35496973718779       -0.18837505730308
H            0.47655099244044       -3.03325358377176        0.69136287299406
H           -3.81429824812041       -2.08340103453805       -0.63303428906451
H           -4.89356808923114       -0.76022331534418       -0.26926930077188
H           -3.19257853523301        2.79684029293436        0.91818965452809
H           -0.99077157146293        3.23466014606095        0.29319383522395
