28
 energy: -46.685985204653 gnorm: 0.000712130837 xtb: 6.6.1 (8d0f1dd)
N            5.09195118112987        1.15826272014110        0.22789795885020
C            4.03075403816638        0.72118460984829        0.14086673476534
C            2.72931893102792        0.22620648973164        0.05696989593992
C            2.35437774153151       -1.12679528203113       -0.02795792149384
C            0.96670994225844       -1.18023336217812       -0.04062832153337
C            0.04286169807176       -2.23572155306349       -0.08918396997624
N            0.42263332544687       -3.52404627709663       -0.19782990063343
N           -1.26776050078723       -2.01572647568788       -0.01172859511339
C           -1.77315673299114       -0.78237344480226        0.02823788358024
C           -3.17175262944147       -0.77817116417478        0.20504683495684
C           -4.08817774960112        0.24971852491652        0.25182504893463
C           -3.89097245978926        1.60244556457764        0.01692661679710
C           -2.69028184892962        2.22790321104650       -0.29860491879074
C           -1.41575938908181        1.70675977850116       -0.32537854870138
C           -0.93449987346389        0.40584391660655       -0.07144518980590
C            0.44646042725406        0.17366824854643       -0.00045813623419
C            1.56959098901473        1.03416054195896        0.08600903365515
N            1.59234094998207        2.40625839662597        0.17700905789836
H            3.04252140191814       -1.95161494056411       -0.06028406176706
H            1.39283899524242       -3.77634853909570       -0.18516789385560
H           -0.28550990787449       -4.23540934469581       -0.16968577296759
H           -3.56360864091409       -1.77777705267744        0.34691954415894
H           -5.10913796369534       -0.04683197185909        0.46118554620518
H           -4.76865810488373        2.23427908242593        0.05179112346656
H           -2.76284421520383        3.28353150338149       -0.53464432150725
H           -0.64431043508391        2.40804387796968       -0.61508997060931
H            2.50395316662952        2.78784506288477        0.38986490267178
H            0.84169666206733        2.83492503806396        0.69733235770886
