30
 energy: -49.321865235999 gnorm: 0.000317258049 xtb: 6.6.1 (8d0f1dd)
N           -4.23616119273294       -1.25145416731425       -0.44209288496360
C           -2.95733161691812       -0.83588023727968       -0.18343870267710
C           -2.79846394634978        0.50250967701137        0.18714744263518
C           -1.64480795032842        1.23470470143733        0.40850515329788
N           -1.81310425337721        2.44682528475574        0.99206762335428
C           -0.29252334539906        0.85237237033865        0.08035132513894
C            0.66512108000509        1.88157345781808       -0.20042160019972
N            0.25219676348719        3.21867152680142       -0.42014528617351
N            1.96141044480609        1.72270099717600       -0.29312598327304
C            2.44707759432863        0.49442795062443       -0.10617004077953
C            3.74985199920241       -0.00864778137204       -0.10401215342813
C            3.60741582326962       -1.37975271067383        0.05316140275099
N            2.32741335803105       -1.77499818623471        0.15025660358073
C            1.57965797623438       -0.64784355828291        0.06438549188102
C            0.18857634268180       -0.49109833848760        0.11261466230199
C           -0.61147311887802       -1.70448796282175        0.13333093204364
N            0.06880691470482       -2.83426292925775        0.34006247448069
C           -1.96868457773247       -1.81189195833101       -0.16294401767774
H           -4.37399121339257       -2.15972834587656       -0.84870887193928
H           -4.94210772445466       -0.56110872059042       -0.62652016025326
H           -3.72542280369453        1.04331752710941        0.34816469395707
H           -2.74299960709556        2.80005020909659        1.13305997199578
H           -1.03470891300938        3.09029008181961        1.00621357857036
H           -0.46504796256978        3.30061023019518       -1.13123641491977
H            1.07121313469707        3.75802862324217       -0.67868697860994
H            4.66376423376531        0.54171198272756       -0.20422624501178
H            4.39222952782980       -2.11553453269188        0.10629039037202
H            1.11817225783367       -2.75104141331259        0.33943519553550
H           -0.40339182500984       -3.71708064319329        0.23768977721902
H           -2.31893530673451       -2.82534078513333       -0.33293194210869
