29
 energy: -50.409331791690 gnorm: 0.000534397655 xtb: 6.6.1 (8d0f1dd)
N           -0.15722775555155       -4.21094175665317       -0.01856908149198
C            0.11267708542491       -3.09238028948789       -0.01493223181551
C            0.49305494921265       -1.73906244323902       -0.00848271667403
C            1.86133018703865       -1.47077948548858       -0.00472908874798
C            2.27328908647753       -0.16049274532177        0.00659966621181
C            3.54087356056746        0.48883111197405        0.01993756743989
N            4.76091905293548       -0.09194452423578       -0.03105602395836
N            3.40015799055270        1.82433263595763        0.03667737325387
C            2.08685248484799        2.08010158519030        0.03293776413840
C            1.30882427438954        0.91248605577106        0.01492956379536
C           -0.08126063245130        0.67552498228039        0.00552704502852
C           -0.94370672862171        1.76945595677308        0.00099747236381
C           -2.34356206034437        1.84900888163592       -0.00625530866853
N           -2.88760149846889        3.09362097478969        0.01394753635544
N           -3.26596381500438        0.89288653951092       -0.00235138012660
C           -3.03915672928073       -0.41278774931815        0.00301690421659
N           -4.18014683208923       -1.14499543766694       -0.00937202368579
C           -1.83203833863776       -1.13573076774992       -0.00357223151187
C           -0.50590752809967       -0.71653342808269       -0.00332901744065
H            2.56160615764643       -2.29545577641598       -0.01138309880558
H            4.84750479864624       -1.07013381043809        0.17985694951670
H            5.55456304504386        0.50369120485109        0.13054955797155
H            1.75976464505896        3.10433339898681        0.04927069443713
H           -0.44833831923110        2.73197787344115        0.00406978203481
H           -2.31822195874868        3.90991151137293       -0.11215528613479
H           -3.88498167319684        3.16747197108314       -0.07570366153401
H           -4.15804167775632       -2.14494847817171        0.06946139971926
H           -5.05546963083562       -0.65705175705278        0.05176777809870
H           -1.97063166972427       -2.21129981579569       -0.00907645698622
