26
 energy: -47.235015651307 gnorm: 0.000867722362 xtb: 6.6.1 (8d0f1dd)
N           -5.54871826670771       -0.30263477039429       -0.09806307073806
C           -4.41148222070700       -0.14162456341690       -0.07157748414176
C           -3.01830162470799        0.05067386383221       -0.04867307678097
C           -2.49475073216484        1.17372001747452        0.62216573420213
N           -1.31174905286122        1.69362849024431        0.51518921793379
C           -0.17943314515586        1.21002957077642        0.02698094451272
N            0.80791510385461        2.05144240443531       -0.16957194962771
C            2.08233337063007        1.62524091572397       -0.19405978080654
N            3.00244140969908        2.56397659034186       -0.49433264499326
C            2.40419252459408        0.29595989141583        0.09689986108265
C            3.60327697701289       -0.43215020108265        0.19185448189399
C            3.30966128677452       -1.78646179211048        0.28666887398133
C            1.91958821372725       -1.96080863112426        0.23245218018822
N            1.20558654224790       -3.10404437819074        0.28866859901948
C            1.32769031565386       -0.66448414422469        0.13134450319719
C            0.02063872261426       -0.26826426638189       -0.07305042710405
N           -0.91873308708157       -1.11682650205333       -0.48433426450024
C           -2.19936130858968       -0.93377952960415       -0.63316540637568
H           -3.16958745419539        1.73691978786474        1.26204265311320
H            3.97854090282856        2.37924582757580       -0.35074652890102
H            2.68168234350559        3.51172292780657       -0.59243239572868
H            4.59547734956008       -0.01727271535951        0.17860813929679
H            4.02950464596923       -2.57902322989694        0.37544359091175
H            0.23236449175034       -3.03312014347021        0.03279012329278
H            1.67323540856705       -3.98593126626007        0.16748115669791
H           -2.69340894941824       -1.72593610322126       -1.19095261192578
