26
 energy: -43.228668633760 gnorm: 0.000625146914 xtb: 6.6.1 (8d0f1dd)
N           -4.95193787744017        0.68103124744014        0.13457119475553
C           -3.92978869016077        0.15419321101760        0.10217475472818
C           -2.70213204054466       -0.50323463844126        0.06165488626068
C           -2.50919140230384       -1.91182794356043        0.06336202850458
C           -1.16638406454711       -2.19943271965067        0.00381673024092
C           -0.44388387806498       -0.97721191504540       -0.02906483347963
C           -1.43107453907371        0.08882462138644        0.00211388442958
N           -1.11145471392120        1.37424746982202       -0.09128378701362
C            0.15942168316532        1.70102717722536       -0.13139694708303
N            0.40833232267997        3.05726080704357       -0.20241295026443
C            1.25044657009787        0.76071445839713       -0.02603590713481
C            2.51842018024111        1.27685205175357        0.19855107744625
C            3.76682875457759        0.65832860876190        0.29397575768862
C            4.09148419550467       -0.66381549864643        0.09627318262964
C            3.21646460070054       -1.72654160774760       -0.16038979133849
C            1.84694602300329       -1.71636773306765       -0.19417981931584
C            0.90850089663828       -0.66186138380755       -0.07402531759082
H           -3.30929481418069       -2.62886898648746        0.10741549398414
H           -0.74782581290902       -3.18934551089753       -0.00045149463447
H            1.15172835255819        3.36521281656987       -0.80874900693642
H           -0.44842914161664        3.58139452249414       -0.31050521165171
H            2.54773036478911        2.34830646401430        0.35260797068747
H            4.59177468533911        1.32306276279259        0.51835274958663
H            5.14175809290290       -0.91916663384317        0.15536798542889
H            3.68658762463836       -2.69127440581272       -0.30613786601448
H            1.38246310952659       -2.68317783311069       -0.34053806151338
