31
 energy: -55.433979303088 gnorm: 0.000663763608 xtb: 6.6.1 (8d0f1dd)
N            5.09277703488199        0.16426163490159        1.03025128806345
C            4.05907941191996       -0.21453347870953        0.71174622174449
C            2.79067181302722       -0.72744827845841        0.33687730396263
C            2.73662319887092       -2.11571878702580        0.13736384944648
C            1.66004428782386       -2.84059792571687       -0.29519906339812
C            0.31244789341485       -2.46513174611181       -0.46269782612571
N           -0.45589807972942       -3.39501663799609       -1.06722126377945
C           -0.32035507860525       -1.23909618656507       -0.06188416815361
C           -1.71412155061763       -1.23935196876626        0.18591530822314
N           -2.41637991548565       -2.43747452945948        0.37939086391691
C           -2.44981076768468       -0.04277233340650        0.21052323025620
C           -3.83463336219065       -0.07998032580479        0.47046879229146
N           -4.95905364567931       -0.13634324051020        0.69685727773577
C           -1.81979476063208        1.17548183132485       -0.03006290130381
C           -2.30982598505264        2.48673343293550       -0.11652194515996
C           -1.22659414084869        3.32802809945963       -0.27196099879887
C           -0.02974794238680        2.57050847389045       -0.27258249170096
C            1.22852497180419        3.14617574638959       -0.44262409710518
N            2.24883129816357        3.65886892436549       -0.59231343635526
C           -0.37474759579858        1.20745734785896       -0.13180516989256
C            0.39333790471508        0.02979070567867       -0.03852220416134
C            1.77548357460724        0.19487634325351        0.14972790982967
H            3.66764951809041       -2.65115663609575        0.27359675461333
H            1.85860102458125       -3.87970347113162       -0.53263329250399
H           -1.44185988159816       -3.23635553974546       -1.20077646296690
H           -0.04386139293852       -4.25234346988343       -1.39061576263297
H           -3.36894567769629       -2.28414929469455        0.68551695502169
H           -1.94323302474897       -3.11843408170984        0.95685401542502
H           -3.34360204046994        2.77274738827862       -0.06890460367423
H           -1.26149845434826        4.39655880448111       -0.38340872134555
H            2.09133881051030        1.22747208767333        0.23562617242774
