24
 energy: -38.984947851339 gnorm: 0.000743800420 xtb: 6.6.1 (8d0f1dd)
N           -4.34034896402407        0.77482775452433        0.04434191853345
C           -3.05118033634304        0.36692603446326        0.00474140698303
C           -2.79715472632757       -1.02237954980753       -0.01152616729486
C           -1.58359141087165       -1.65782923213178       -0.01955576982430
C           -0.27506895133782       -1.13731048303248       -0.00849604568811
C            0.78372755844912       -2.06600220281275        0.00005059951496
N            2.06893321663217       -1.78110278610169        0.01077733849031
C            2.40788420713775       -0.50593132743643        0.01061153162643
C            3.68303501776124        0.07293577329332        0.01764630295778
C            3.51450735676180        1.45198976652237        0.01372874327134
C            2.15200796485822        1.77678545975700        0.00281911823937
C            1.42021683511035        0.58988157889991       -0.00087554346302
C            0.05434977987655        0.27659083477238       -0.01255430146283
C           -0.88556638794413        1.33072318049314       -0.04273746135300
N           -2.18913541493103        1.38426165822806       -0.02721833476895
H           -4.52164996950421        1.76303482935258        0.05133072539583
H           -5.10290476513276        0.12325457462483        0.06632035281670
H           -3.67919116348536       -1.65142887146123       -0.01295106022949
H           -1.62881029390764       -2.74158194264509       -0.02843073081579
H            0.54955485303646       -3.12409889061158       -0.00019604505564
H            4.61262478003282       -0.46231987883029        0.02491072504543
H            4.31286421133516        2.17379069350687        0.01813293520316
H            1.76212092313064        2.77878930146164        0.00080328972586
H           -0.44416544721297        2.32318745757118       -0.07831054504762
