29
 energy: -50.393734428665 gnorm: 0.000689707801 xtb: 6.6.1 (8d0f1dd)
N           -4.20298622093912        1.92694310046201        0.52268742009363
C           -3.29989710150551        1.23037790886805        0.36605713786650
C           -2.21383668432194        0.36371489599581        0.16190608071266
C           -2.52957233737339       -0.94427148369275       -0.33695574897310
N           -3.69178862111472       -1.11070518826730       -1.00246191400577
N           -1.83942386541562       -2.03032157103291       -0.09598696854824
C           -0.58546424947980       -2.14754457073730        0.29175955114516
C            0.47326732075510       -1.25650561672490        0.16501238921441
C            1.82526804849541       -1.78246148902610        0.14890456499707
N            2.04946195610035       -3.13712413729028        0.31343911270930
N            2.89746195181227       -1.05379273278090        0.01978197542008
C            2.76256665395127        0.26506664487974       -0.16586592521872
C            3.73084456665852        1.22749402162016       -0.33628833499584
C            3.07496941344415        2.46735206459029       -0.52174987767490
C            1.71326603678384        2.31079903002885       -0.41033849540202
C            1.44990543624868        0.93125727697728       -0.17872568409565
C            0.31859318291632        0.17748319581165        0.06739165790030
C           -0.92874498606582        0.84077089361199        0.42387905370290
N           -0.80619639364183        2.04448621655889        1.00354104836390
H           -4.36384920789326       -0.36427919379526       -1.04909707385300
H           -3.97947444983405       -2.04886407450524       -1.22154889573683
H           -0.36314555129950       -3.15295079601211        0.63330293371100
H            1.41020988183821       -3.77590190360791       -0.13018342847236
H            3.02200147444012       -3.36621050617680        0.16607766808322
H            4.79068350944852        1.06542196628695       -0.35513574619379
H            3.57679794426951        3.39900878925479       -0.71840191541756
H            0.98457694788610        3.08155043354014       -0.59294344352103
H            0.11499452517382        2.41266712054555        1.18114172431636
H           -1.62278789683774        2.57628053621700        1.25581518637158
