35
 energy: -62.329413799022 gnorm: 0.000886344335 xtb: 6.6.1 (8d0f1dd)
N            5.35707440810323        0.02345223729431        0.56618413480387
C            4.22171502989024       -0.06664103158522        0.39028527831364
C            2.83851061643755       -0.17969407679624        0.17611690279024
C            2.28280876225482       -1.47503520175407        0.33090475474339
N            3.13552979236383       -2.46297864981748        0.70924204984485
C            0.96629902614239       -1.85461809081590        0.08771946333280
C           -0.21117859614074       -1.12206120025903       -0.07692210118670
C           -1.40526813417835       -1.86193162545463       -0.25422390612737
C           -1.35341719541785       -3.25196432611057       -0.42955783790395
N           -1.37249739518260       -4.39512085527814       -0.57184921295313
C           -2.69140802600453       -1.27021133214700       -0.22941758375431
N           -3.79238950757544       -2.01653964598819       -0.47419512796157
C           -2.76314011742381        0.08332582044123        0.09124726010499
C           -3.86510636249015        0.92106218089375        0.33712619591282
C           -3.39819604438045        2.17414488976794        0.68842260733788
C           -1.99601312419929        2.18016995396731        0.64018540659761
N           -1.24987172850354        3.20257193067155        1.12156724256249
C           -1.56188211758970        0.87038148662057        0.22767794150485
C           -0.30255676779581        0.32782098475195       -0.02883774348262
C            0.79032869725029        1.17346581685330       -0.38903719622783
C            0.41960954900023        2.38606592932624       -0.99347473206213
N            0.16657415129544        3.37052247656026       -1.53836663886231
C            2.18454166639083        0.98034950872414       -0.29203474820383
N            2.98026235453314        2.03922421028730       -0.60185798577428
H            4.11896537832702       -2.27973886185232        0.80761501552205
H            2.81525016733456       -3.41388972801482        0.73730280727524
H            0.81511875081793       -2.92846952087518        0.12026979046785
H           -4.70213058993195       -1.61944419715681       -0.33163487195687
H           -3.70700053095310       -3.01352986978746       -0.57556956281237
H           -4.90117052088137        0.63853436135553        0.28067264628818
H           -4.00074937616335        3.01790084698758        0.96989713839883
H           -0.26618670244937        3.25993783127993        0.92837348205855
H           -1.72464190117080        4.07369762593430        1.28802279792548
H            3.97797348120795        1.91717331075301       -0.63378332490012
H            2.58326616028340        2.85619376072203       -1.03325182991625
