28
 energy: -50.679193780111 gnorm: 0.000270577113 xtb: 6.6.1 (8d0f1dd)
N           -2.78750037190265        2.94804755338805        0.17345543309010
C           -2.42175777173730        1.86030412584811        0.09370534633221
C           -2.06159821171707        0.49964465696524       -0.01003352072971
C           -3.12026416928829       -0.43449111967641        0.10367725342506
N           -4.35221020082796        0.05626665992905        0.37594396497446
C           -3.00784605290110       -1.81714359161992       -0.09145728148719
C           -1.85875255932922       -2.54527027330879       -0.36286037931692
N           -0.59236251036399       -2.23058543610593       -0.31180330315222
C           -0.02791550554608       -1.03813223897055       -0.13808400760179
C           -0.67049540942126        0.28282397305940       -0.16085459846077
N            0.03060584394048        1.40748547585453       -0.25981827954199
C            1.36312254223333        1.42753502566042       -0.20878635329643
N            1.93875070801340        2.64428654892373       -0.36443392403190
C            2.07813380378496        0.25739494689425        0.04970487974707
C            3.42738118158924       -0.10805504230138        0.23015208418353
N            4.52198566324632        0.70376112519770        0.29062454434557
N            3.56455662336765       -1.45403816683962        0.30045168611842
C            2.35462632220911       -1.98200826189934        0.18158747600198
C            1.35791791549011       -0.99091129008591        0.03644074500184
H           -5.14646599093681       -0.55741611239098        0.39600319359570
H           -4.49906686353940        1.04930935059836        0.44069025010953
H           -3.93481194437333       -2.37544134346425       -0.05528686378328
H           -2.01144913216306       -3.59431434009905       -0.60811202989866
H            1.32144644862384        3.38121251686309       -0.66621401056404
H            2.90476919674367        2.69458176504518       -0.63775846513636
H            5.36600808372615        0.22274082981095        0.56328114156995
H            4.39604556428980        1.61610577345944        0.69999759757001
H            2.20992191068887       -3.04491055053645        0.21016046233414
