32
 energy: -58.377009091760 gnorm: 0.000885522895 xtb: 6.6.1 (8d0f1dd)
N            5.60118210227459       -1.27581165214613        0.00475190224288
C            4.47801552034408       -1.01948347231629        0.00955327064472
C            3.11855073282092       -0.68290767062660        0.01200916038295
C            2.19984727982988       -1.73542494772473        0.06717632875801
N            0.89672446056521       -1.76274784474629        0.07641943854653
C            0.04724632720482       -0.69871369851447        0.03534253382725
C            0.38544214581634        0.72010598720488       -0.00709462396059
N            1.60195005537487        1.28038664212616       -0.04156046300460
C            2.78440361410191        0.71379262742756       -0.03994427093417
N            3.80505848359219        1.59177163200077       -0.09194299457449
C           -0.66387462485420        1.65673057088419        0.00350576609639
C           -0.31925394762748        3.02052086886532        0.02185392784611
N           -0.10827752184172        4.15081544796085        0.05238453702025
C           -2.04405647573426        1.31960530848510        0.02777848319936
N           -2.98765649459016        2.31350780116928        0.03826117940278
C           -2.35659681932244       -0.02891217985628       -0.00498897659266
C           -3.58866027492294       -0.75409855854425       -0.05404405661512
N           -4.83166584883511       -0.19865309889388       -0.12931126298879
C           -3.31054418512694       -2.12037282787000        0.01008246684019
C           -1.92604953777047       -2.29947413964174        0.06379347745788
N           -1.20726223701168       -3.41977884299133        0.11740124564686
C           -1.30357795603494       -0.99903809278482        0.03598788560952
H            2.64208406597020       -2.73052939167449        0.10866057324875
H            3.57750292257591        2.57052550171361       -0.12175150364170
H            4.76213439363276        1.28426852511626       -0.09199338065584
H           -2.63327133578634        3.24687674961731        0.19232927904402
H           -3.85970489654505        2.10924666698429        0.49858136792615
H           -5.58726915586680       -0.83717471790784       -0.32543039223521
H           -4.90553574143028        0.69572168623894       -0.58777573532863
H           -4.04529471458585       -2.90414157602158       -0.00270983571232
H           -1.63396452951911       -4.32892818500943        0.12869902923580
H           -0.19797351969660       -3.26363772252485        0.12283894006749
