33
 energy: -62.895992307612 gnorm: 0.000748270082 xtb: 6.6.1 (8d0f1dd)
N            5.17624764326636       -1.74786989065008        0.51786116021839
C            4.14599272896502       -1.24386269155306        0.42231714479952
C            2.90631890823386       -0.62170433881032        0.29009260499575
C            2.70544582209445        0.70799812158354       -0.13561916815182
N            3.70185705685269        1.56462524525746       -0.49695819139842
C            1.31530380165345        0.97353225632173       -0.08783172317651
C            0.60314390112966        2.14823372346356       -0.30372754215772
N            1.20119968083001        3.32749426897110       -0.63905232270615
C           -0.80254417342084        2.10837599936245       -0.10914349121816
C           -1.52170154512246        3.31349684539927       -0.19079355079708
N           -2.04401334032943        4.33285476042403       -0.28779251668795
C           -1.47235398586587        0.93727074180361        0.27234044253714
N           -2.67115686937730        1.06770934787879        0.82764933591474
C           -3.58523168977981        0.17842378221681        1.06303141535359
N           -3.81943810295098       -0.97049145752750        0.46514487016577
C           -2.90296735460043       -1.66830323201770       -0.19092943991901
N           -3.40064863686147       -2.69765133824875       -0.90456772547234
C           -1.48109998723760       -1.51938757705974       -0.11587422509715
C           -0.76357068147776       -2.59441669687873       -0.65309521655701
N           -0.21892382644027       -3.50932420946455       -1.09785810800851
C           -0.75634688318569       -0.34022904179167        0.21050280806765
C            0.63639470330975       -0.26576320729916        0.24595373818465
C            1.65098755044901       -1.23072388019546        0.52857331828810
N            1.52531421888969       -2.44340938337229        1.09734953397456
H            4.61735103649487        1.14654325620177       -0.58167920439982
H            3.48876858279687        2.25568767903508       -1.19890182137089
H            0.60683854811127        4.14405954611364       -0.61732938650338
H            2.14695361087727        3.47377092875005       -0.32712681591671
H           -4.34897492476723        0.48374768710981        1.77256526767381
H           -2.80217644709675       -3.36355281077503       -1.36173961944369
H           -4.39585229960761       -2.83622957236156       -0.89156178172732
H            2.35563671359247       -3.00996131453867        1.16703985406955
H            0.64515842799678       -2.92862696811457        1.08566496015902
