30
 energy: -55.717121290946 gnorm: 0.000948111948 xtb: 6.6.1 (8d0f1dd)
N           -4.34070742409651        3.11241393382591       -0.38005773225644
C           -3.51324524369815        2.32924172041858       -0.24064306048009
C           -2.50794492381606        1.34856211981721       -0.06932600236451
C           -1.25323630457013        1.83343739014503        0.27902014621854
C           -0.01040887934062        1.20541213395179        0.30061624840841
C            1.12137633888908        2.07546865492653        0.42155786706010
N            2.36394292832882        1.72065419516063        0.31896073243533
C            2.61773031493922        0.44628128385258        0.02936914639439
C            3.84656335813659       -0.18685087903540       -0.17095762847555
C            5.11424718952765        0.39318924104961       -0.10942919898322
N            6.17230725550681        0.83904190530112       -0.05997822536050
C            3.57761854229456       -1.54897574851780       -0.47713861549295
C            2.22467533403166       -1.78653769589701       -0.41509616067446
C            1.56771142467258       -0.56976799268551       -0.09101960212338
C            0.24794038491352       -0.19997756823205        0.14936694051061
C           -0.75901226935478       -1.21706067102485        0.38460789573718
N           -0.30475631997831       -2.38025431724710        0.87131516535208
C           -2.13379500840965       -1.12106516185809        0.11471869606421
C           -2.85142752265823       -2.33523540461756        0.20613055796760
N           -3.43524457292769       -3.32219514959400        0.28416208401273
C           -2.91818088453005        0.00501742093462       -0.24537572529540
N           -4.17111582308024       -0.21770907520740       -0.68689252516817
H           -1.22356929762689        2.90499610839111        0.44549066277192
H            0.94358558884306        3.12898606787562        0.59266351013846
H            4.33451109559018       -2.27325560121654       -0.71901862151826
H            1.75643781758920       -2.71875455092169       -0.67882794225433
H           -0.93442691079085       -3.14294441343218        1.06233012247530
H            0.67356554884050       -2.47557663827213        1.09259437258035
H           -4.78941418843847        0.55856883264283       -0.85740414434431
H           -4.53802841528497       -1.15337375182850       -0.74167695313505
