29
 energy: -50.398639850183 gnorm: 0.000415799011 xtb: 6.6.1 (8d0f1dd)
N           -5.63846480214497       -0.11596764588891       -0.07326965157151
C           -4.49021526098418       -0.20638865140965       -0.05811447807239
C           -3.09089078814378       -0.28340976044347       -0.03734541934125
C           -2.51616582948017       -1.55998051442220       -0.09380630477057
N           -1.27852175191876       -1.96033124364852       -0.07500031734462
C           -0.16038580341771       -1.20794483153822       -0.02110744231736
C            1.00894601076418       -1.95353653601489        0.01447683937147
C            2.29639176978334       -1.40371192360964        0.04646273948984
N            3.38854199429326       -2.22395758780787        0.10244823156672
C            2.40614919952870       -0.01329081601142       -0.01828852894875
C            3.50969583727247        0.86914790372243       -0.07259339998131
N            4.83591556793355        0.52467415647441       -0.14168297954281
C            3.01147342758675        2.19101630524829       -0.02741986801233
C            1.63799981502821        2.15210121209810        0.01756250289020
C            1.21873252322459        0.79437101555811        0.00790413733860
C           -0.06975199233118        0.26491506261372        0.01270285345012
N           -1.06927761266496        1.15035287885837        0.05523959065734
C           -2.36632545508651        0.95170214506814        0.04523234112665
N           -3.09304312801400        2.08943311444640        0.11590763388505
H           -3.22538172839770       -2.38390802803186       -0.15863128915635
H            0.89538110094423       -3.02792601553869        0.02787142274917
H            3.20646571089009       -3.19353770950008        0.30944402594082
H            4.22770981239667       -1.84551466114942        0.51007536372789
H            5.46183173265948        1.28939801561372       -0.34669535523952
H            5.05291430062958       -0.32445416092707       -0.64093782813012
H            3.62567623662989        3.07342126770728       -0.04444960650628
H            0.97303576365010        2.99350170091647        0.04539225209410
H           -4.09764658573515        2.06810960440832        0.11085328237084
H           -2.59843295789606        2.96172283320810        0.16871391457633
