30
 energy: -56.511639142366 gnorm: 0.000499829891 xtb: 6.6.1 (8d0f1dd)
N            5.97460798924793        1.24189200573287       -0.91023697537123
C            4.97493137480047        0.73483336251269       -0.66456535205450
C            3.75629753790218        0.10620269835302       -0.36670120135352
C            3.59850527778309       -1.25028219487294       -0.04020118834443
C            2.22661309243538       -1.48868791183289        0.12755173612615
C            1.51236698055676       -2.64451759181859        0.40079294288224
C            0.13308405828064       -2.59367216535111        0.38471494172341
C           -0.59028783063960       -1.41391339043857        0.15272473259181
C           -1.98620983383147       -1.54506174045191       -0.05715700198479
C           -2.52459155713747       -2.85944907884271       -0.06239134845750
N           -3.02420172175556       -3.89171906482494       -0.06976478329890
C           -2.94611922467286       -0.58568170303343       -0.36072012586496
C           -2.86953986425214        0.79723877434704       -0.29947591554183
C           -4.06074758067774        1.48689659804882       -0.62511517601516
N           -5.01969887478182        2.05638528253773       -0.89636986348085
C           -1.77552629598969        1.59531067658379        0.13628875594868
N           -2.03242431709882        2.89925939595076        0.36458500606961
C           -0.44894206725688        1.13078021130953        0.29775512204679
C            0.41901816449605        2.13139110335368        0.80105630849536
N            1.00101642652126        2.98687329597860        1.30138002951640
C            0.13291035874937       -0.14569631429215        0.08713332394992
C            1.52663097148514       -0.23705531822680       -0.05190861801115
C            2.50136063759665        0.73113916181931       -0.37446816553045
H            4.38686100939492       -1.97462026098591        0.04273822107751
H            2.01983177649329       -3.58180466111308        0.57259541547865
H           -0.42357869866512       -3.50867899133213        0.52101267657140
H           -3.91921711225676       -0.97776504093907       -0.63829028138708
H           -2.96297564637538        3.26064971135088        0.23553039117456
H           -1.30237141226102        3.52485544570298        0.66249737145076
H            2.33896868360764        1.75604967617230       -0.64901941390765
