30
 energy: -49.319089049379 gnorm: 0.000537276806 xtb: 6.6.1 (8d0f1dd)
N            2.89997730314410        2.59178947703165        0.77874841571993
C            2.33052831448525        1.39150041364979        0.41729439379450
C            3.19176542136567        0.34695290963713        0.10484884280598
C            2.81492138261041       -0.92492749045332       -0.35556170946031
N            3.77953990948722       -1.69623740948167       -0.94465117025088
N            1.65503049082252       -1.53327391860787       -0.24670667839358
C            0.44793442796338       -1.07747851009354        0.03771089228664
N           -0.43370734126716       -2.03259341129190        0.29472523592017
C           -1.74189492264114       -1.77223376836662        0.36353098997746
N           -2.52795110768600       -2.81725366628741        0.72752105389779
C           -2.25664285542886       -0.50886419388247        0.06739245867683
C           -3.55356310133942        0.01818018944951       -0.04880899656929
C           -3.44745901105271        1.36944584818697       -0.33974064900971
C           -2.09290267752151        1.72880533479362       -0.39279473326884
N           -1.61426881302559        3.00131304770083       -0.65790914282178
C           -1.32285920995277        0.57070391541065       -0.12960201462370
C            0.05650085342519        0.34868194823834        0.00989933626584
C            0.93514331888077        1.39288378157043        0.27027200124919
H            2.30420001557816        3.27496760394923        1.21517998656648
H            3.85430716302993        2.57808171820877        1.09602928241243
H            4.25414878717978        0.54957952317736        0.16687241176617
H            3.54095341392929       -2.66483597258829       -1.07573121697198
H            4.74827441201879       -1.46708176288769       -0.80918660464809
H           -3.51711121342556       -2.76397204204783        0.56317731055312
H           -2.08937010545118       -3.72195961434888        0.75265912759259
H           -4.47491636941228       -0.52672042382966        0.05905704302386
H           -4.26798810275441        2.04538875837049       -0.50658506092439
H           -2.30482623733138        3.61160990346440       -1.07305957780164
H           -0.73021416877447        3.02289748697594       -1.14745616908660
H            0.46433871205262        2.34786863244932        0.47236659423066
