33
 energy: -58.891022674698 gnorm: 0.000788416774 xtb: 6.6.1 (8d0f1dd)
N            5.38178671416997       -2.17382532771972        0.17849546195532
C            4.36831337949617       -1.63322912117375        0.12731140338676
C            3.11826361199637       -0.98775521236853        0.05801202482869
C            3.12781009822106        0.38643346900877        0.28871549437772
C            2.10573490535053        1.31388343030732        0.21374917902932
C            2.55698840254920        2.63755802823041        0.43460691611318
N            2.96694827691440        3.69381482562558        0.62355628696722
C            0.69888070177844        1.14848212425243       -0.01243864199039
C           -0.05625465630174        2.29785137823053       -0.16910280190301
C           -1.45601568058205        2.31213257691987       -0.28158061456454
N           -2.10613866067118        3.47361141975821       -0.49909712009385
C           -2.12712711177632        1.09346297933602       -0.13881306952509
C           -3.49073547314726        0.78001943413302       -0.10922761214904
C           -3.61160700483700       -0.59328960079811        0.11935196834947
C           -4.79303234199928       -1.32023385931199        0.27250146429550
N           -5.74238940320606       -1.95363280718210        0.41788736972407
C           -2.31394515029467       -1.16083366772915        0.22606056645867
N           -2.08815879063317       -2.48672881312647        0.48947837863453
C           -1.36990297409435       -0.12203764679736        0.03105805871556
C            0.03792573441345       -0.15053871246738       -0.04392634014981
C            0.66145824453988       -1.38250623202888       -0.25332673897203
C            1.99492898789960       -1.79073759812857       -0.26748948455625
N            2.23331081183123       -3.09746121721331       -0.55072684913335
H            4.10525509139679        0.79810105838046        0.52118267205271
H            0.45351499723448        3.25039651697535       -0.20242356095179
H           -1.60078261117131        4.34187898317837       -0.49144998433593
H           -3.10929577533309        3.49931006521590       -0.48292250774594
H           -4.31735841638459        1.45710125093302       -0.22351886552837
H           -2.91427892548541       -3.00196791801024        0.76197583303109
H           -1.26598401719788       -2.70617556684522        1.03257853846376
H           -0.02570960202864       -2.18140058850232       -0.50218060226681
H            1.48686543009363       -3.69119588826390       -0.86473461134342
H            3.17895326136045       -3.43144735492145       -0.62546482086991
