23
 energy: -40.055319809057 gnorm: 0.000678739736 xtb: 6.6.1 (8d0f1dd)
N           -5.06317482888408        0.97735706153375       -0.00135287289932
C           -4.00764587927654        0.53110486663882       -0.00063928594680
C           -2.70086861409595       -0.02509930546389       -0.00076163696564
C           -2.64106526759040       -1.42543276337076       -0.00087807277813
C           -1.51157387289613       -2.21934014018863       -0.00075848997226
C           -0.17802459865366       -1.83502249991323       -0.00046711509462
C            0.42192739187858       -0.57238234248600       -0.00021064042921
C           -0.27438729265721        0.71836031105108       -0.00022922964185
C            0.51015098012680        1.89423790232586        0.00004594302036
N            1.82191822293236        1.96220022772065        0.00032226402405
C            2.48517025552782        0.82472115848340        0.00035551986569
N            3.81794490685737        0.68551376104906        0.00062975601372
C            4.04680345456694       -0.62573306411585        0.00055261304578
C            2.87850812334866       -1.40329335351407        0.00023819358742
C            1.82207028986832       -0.49135844220197        0.00009347097461
C           -1.65870586073833        0.89746319966218       -0.00046650311394
H           -3.59772636872540       -1.93377102615809       -0.00108510094576
H           -1.68936656592374       -3.28738430264859       -0.00091056455404
H            0.53141796726491       -2.65348294985631       -0.00040147767962
H            0.00604084226953        2.85269986949056        0.00007900473635
H            5.05839472073401       -0.99137593773113        0.00071496169626
H            2.84120568641297       -2.47605224909959        0.00013133910584
H           -1.97849640984683        1.93520989659276       -0.00038776704892
