25
 energy: -43.507273593347 gnorm: 0.000833529933 xtb: 6.6.1 (8d0f1dd)
N            0.85398547034065       -3.46621359156905       -0.57810567538612
C            1.08773941655925       -2.36513152375490       -0.34737646033552
C            1.52229922173881       -1.03935826076040       -0.11559990279905
C            2.91332375442646       -0.97613360854143       -0.02684735236301
C            3.74838611936933        0.11117638573046        0.13750574832546
C            3.37844128811834        1.45509967742288        0.15121168320968
C            2.12760745385454        1.99884766727217        0.01272924206064
C            0.84052643614013        1.41016229786504       -0.08388787835737
N           -0.10643724912449        2.34548458327553       -0.21255098332593
C           -1.39280834212085        2.03508900204062       -0.21426028383758
C           -1.81748985977701        0.74499156885148       -0.02910497471484
C           -3.07388470469158        0.08721201691042        0.10440444320199
N           -4.29671183367288        0.64662304311403        0.11389356355059
N           -2.90518713286181       -1.23369269668333        0.28657263562200
C           -1.59707443439972       -1.48473805820378        0.25634470912972
C           -0.82800020017509       -0.31697777950314        0.06504353330501
C            0.53607037887532       -0.00978231084791       -0.02933749166539
H            3.40473342665885       -1.94169106818928       -0.08836454797098
H            4.80409950931806       -0.10363603852248        0.23126010716133
H            4.19071928940797        2.16364434803028        0.25792700682226
H            2.06708264322399        3.07992408987757        0.00152997188250
H           -2.07196663171400        2.86956336905126       -0.34601896276231
H           -4.42121484194036        1.60338236770286       -0.16220654399012
H           -5.09163335595121        0.03190199534731        0.13689384292835
H           -1.25815783000288       -2.49238530991665        0.39690953870881
