33
 energy: -63.677452128041 gnorm: 0.000775979114 xtb: 6.6.1 (8d0f1dd)
N           -4.66780587278788        2.29664361519803       -0.12482137535290
C           -3.65712241090950        1.74777260166514       -0.07767867318984
C           -2.41669304649289        1.08350935049310       -0.02285182524029
C           -2.43039341029024       -0.27368911584565       -0.41878873220956
N           -3.58132741972099       -0.73796007648780       -0.94946602418239
C           -1.37359328948337       -1.19942431274029       -0.23435786133301
C           -1.71568382297671       -2.51900227847581       -0.61274901240258
N           -2.06711955802604       -3.52549571234328       -1.04426117842513
C           -0.02049594764519       -0.99617326596065        0.12158148384204
C            0.74576758715710       -2.13961679459232        0.47753374290104
C            0.11487023314855       -3.29146929550978        0.99625763188662
N           -0.30991557973064       -4.21443128143617        1.53046901578559
C            2.13753467066645       -2.15098366016847        0.42232344638919
C            2.77228248348593       -1.01688412886687       -0.03292309056947
C            4.11854834911054       -0.72164579155744       -0.35519793911262
N            4.25986374219726        0.51658500733623       -0.78313055738525
C            3.04175332989572        1.11722411274797       -0.72281784712822
N            2.93595010209107        2.33949409573707       -1.25459304933998
C            2.04111267808905        0.20882077299754       -0.23473711583984
C            0.66629463960577        0.27871847693711        0.02957995799231
C            0.03853490004296        1.51394771058403        0.35131823798604
C            0.91049207940413        2.52971469129886        0.77212348401945
N            1.59071201119712        3.39197613122948        1.12293678904048
C           -1.32962901069662        1.86144376894632        0.43723844971690
N           -1.62907256500044        3.08664873622445        0.92372593613873
H           -4.38598678007185       -0.13746522898950       -1.01647672819020
H           -3.68301395181779       -1.71545808042798       -1.16711822297413
H            2.68258945159787       -3.04369287383090        0.68877000305820
H            4.96038432770197       -1.38670464033105       -0.29813506518699
H            2.15843094697896        2.94585899955181       -1.05992754437692
H            3.81129653881147        2.76483231258355       -1.51816245773589
H           -2.58625023257566        3.39148799915786        0.97446900813388
H           -0.90336309345716        3.70330557117430        1.24669651428436
