29
 energy: -50.391969176264 gnorm: 0.000697017637 xtb: 6.6.1 (8d0f1dd)
N           -5.32192930917659        0.12793216368683        0.45916233832399
C           -4.20756038735285        0.36982501121520        0.30401053241313
C           -2.84391399284737        0.66815187914665        0.10348050076362
C           -2.59419129968903        1.99859183988580       -0.25050728272717
C           -1.38120552818416        2.63510991560338       -0.35696823890572
C           -0.11887152997311        2.07875436931455       -0.17424981019248
C            0.29084736691081        0.75748460805143       -0.05445987412012
C           -0.54905399438458       -0.44135737106982       -0.06213133228104
C            0.10127658105110       -1.67691741469753       -0.27718357346754
N           -0.61284022156142       -2.87070729544359       -0.48148765457783
N            1.41729744551598       -1.87221330935385       -0.29301692949278
C            2.20294148608322       -0.84442905917059       -0.08852311593627
N            3.54028353549916       -0.87235845200571       -0.02591340547459
C            3.91321074347053        0.40490718392000        0.10466026904823
N            5.21391690517627        0.73613596616898        0.25635584526018
C            2.81560851821584        1.31557540947941        0.12160867473020
C            1.68678558079700        0.52925948702223        0.01710227188757
C           -1.94208363125635       -0.41836137921769        0.26781832056321
N           -2.47630167742345       -1.53618213749480        0.78754039674946
H           -3.48154825410658        2.60461720618531       -0.39269498765609
H           -1.40979208716343        3.69516777577178       -0.57098082213036
H            0.69626779443940        2.79080132377679       -0.18818650667694
H           -1.33901771960539       -2.81017903892957       -1.18401817052511
H            0.04896656126744       -3.60810555307801       -0.69428506199975
H            5.88942308113928        0.00695524089414        0.10701141581435
H            5.50150598106671        1.69027934850270        0.13263173832550
H            2.90302370770842        2.38077890577760        0.22152083099732
H           -3.45473531163154       -1.56445549389580        1.02404297553253
H           -1.90675605518433       -2.36730533284619        0.86921585335659
