34
 energy: -63.400593978685 gnorm: 0.000855234180 xtb: 6.6.1 (8d0f1dd)
N           -5.19147615200884       -1.43816711345929       -0.19729054589083
C           -4.26560458463259       -0.76052274253787       -0.20047775570050
C           -3.13841131095838        0.09305314847451       -0.18569872891478
C           -3.32461438936091        1.36471299855863       -0.73957272081838
C           -2.56282691600178        2.47282999615659       -0.47791716869072
C           -1.30833857119928        2.55223460015168        0.15632518444637
N           -0.99808655170820        3.73171441155818        0.71652518553892
C           -0.31258239622061        1.51022449733383        0.12282381847167
C            1.06043055490608        1.89030732276267        0.02953497738945
N            1.42945959460157        3.24407452491103       -0.07334638293646
C            2.07464023515537        0.93300232476532        0.04439756166945
C            3.41811881133256        1.35947505735912       -0.02937355812189
N            4.48158307033174        1.78644458623544       -0.09657859804411
C            1.75458068608064       -0.42941545944413        0.05273291090286
C            2.55627102165120       -1.58177076383546       -0.05005850857175
C            3.95147099154100       -1.63463888005656       -0.10031317952492
N            5.09752506650871       -1.71101511553739       -0.13367478638093
C            1.69695007140533       -2.68800262000706       -0.13631069093535
C            0.37265056594088       -2.25764489866237       -0.04893498381485
C           -0.72245806172627       -3.10455674984558       -0.20585187375133
N           -1.62711760982177       -3.80665373804150       -0.33096622965032
C            0.37471909232577       -0.83083022370005        0.09375457868063
C           -0.64647293917611        0.12253093848124        0.19580758023949
C           -1.98523903602136       -0.37375840187734        0.46610820902331
N           -2.10741582883520       -1.38355873782832        1.33475958054521
H           -4.25223494464738        1.51516340720199       -1.27626785315349
H           -3.00010615209017        3.42866505500255       -0.73952801399394
H           -0.07195885643285        3.88581168759210        1.08842325906033
H           -1.65431531679457        4.49281294131645        0.68041417010557
H            0.94922855626814        3.74677423306391       -0.80914726703668
H            2.43302068481684        3.34594578893665       -0.17524075178828
H            2.00887694761969       -3.70848272173517       -0.26386864040754
H           -2.97392448010092       -1.89931477730469        1.38579591707951
H           -1.28662918324751       -1.81957040858917        1.72385288917470
