30
 energy: -56.520560990647 gnorm: 0.000616977103 xtb: 6.6.1 (8d0f1dd)
N           -4.48979731413052        3.18225955949341       -0.00062118734745
C           -3.72416903100722        2.32812862691229       -0.00017798259292
C           -2.79143657521588        1.25899049827007        0.00018731339181
C           -1.46274657734451        1.65210298757622       -0.00023675979983
C           -0.25288582676546        0.94161214777695       -0.00005502341983
C            0.91149530146230        1.72903824249065       -0.00066781309418
C            2.19189472264851        1.19073794571872       -0.00056093987852
C            3.30346279798054        2.06729005796234       -0.00125095423551
N            4.17151667444992        2.81455813257219       -0.00166377666728
C            2.34783037227567       -0.19468327151531        0.00017279299115
C            3.47875663253383       -1.02760676020194        0.00048126463471
C            4.81844826291161       -0.63078145908858        0.00012076167673
N            5.92907832307905       -0.33691191380650       -0.00038936033711
C            3.01724675231111       -2.36235330272153        0.00126273603539
C            1.63324266967725       -2.37676327523834        0.00146803995937
C            1.16601115385707       -1.04898926132604        0.00081917231567
C           -0.12949607669253       -0.50533010464819        0.00071405388251
C           -1.20944147300498       -1.40420541261723        0.00138692248295
C           -2.58134617098405       -1.23333000401542        0.00151033611176
C           -3.32475317753859       -2.44226662861469        0.00288254247362
N           -3.93488772876028       -3.41353986757034        0.00225894185909
C           -3.35577228476237       -0.04158165590146        0.00098555814373
N           -4.69677356841173       -0.15600247097269        0.00129407908382
H           -1.33803835931002        2.73057477269647       -0.00081946630590
H            0.80990310692701        2.80470085000064       -0.00123903781688
H            3.65660690223715       -3.22625514054966        0.00164165214086
H            1.03950479019507       -3.27185542667644        0.00205367089914
H           -0.90935601845052       -2.44533344531567        0.00195283762112
H           -5.13158443973536       -1.06426506725938        0.00185141854608
H           -5.27849991653211        0.66598791236945        0.00093344374586
