30
 energy: -54.911825338086 gnorm: 0.000729904113 xtb: 6.6.1 (8d0f1dd)
N           -4.84665274371529       -1.90688369745893       -1.16263632520032
C           -3.90911894790470       -1.34349747444793       -0.81483973729776
C           -2.74791296026223       -0.66354744321713       -0.38308297029183
C           -2.86089308713532        0.70645537412887       -0.19858315212095
C           -1.88737313710011        1.59873762640124        0.23291904609209
C           -2.35194454685098        2.90947105781342        0.47697423578382
N           -2.71939082827526        3.97665306986764        0.69553746871907
C           -0.48242831102221        1.39748226568233        0.37819728753747
N            0.22547174556232        2.47325895199874        0.76382150317719
C            0.25225845258608        0.20056261047920        0.13658892050915
C           -0.33526227900044       -1.14370476981078        0.20107713505040
C           -1.63516542095498       -1.47780575660171       -0.09235383933015
C            0.57795958873960       -2.24093496147094        0.46153715029443
N            0.09639801083822       -3.48232818192261        0.75707467134904
N            1.88552472168976       -2.16718492774807        0.36608064648754
C            2.42074604864118       -1.00171523157945        0.03106597946775
N            3.70463255659598       -0.78544016198564       -0.17190310718002
C            3.81429048777686        0.54382583916698       -0.43924334044751
N            5.03263540203366        1.07345959916159       -0.68638708225261
C            2.59318135022726        1.22672392592129       -0.35471699556547
C            1.63151631815151        0.24953454817530       -0.06601302901577
H           -3.84404911434908        1.13251622198785       -0.36848976803650
H            1.20282546618513        2.36527594738130        0.98284710994234
H           -0.24565039594738        3.33353226314892        0.99313853468262
H           -1.84874602491944       -2.53800563436215       -0.16423042119237
H            0.81710821353227       -4.15913322196079        0.95115983815906
H           -0.77114786546707       -3.58955812117535        1.25203959308511
H            5.77615800467703        0.41736339016793       -0.85467806562307
H            5.09784841756420        1.98256103302098       -1.10936075551743
H            2.46150536110266        2.26360621433762       -0.60175432386438
