33
 energy: -58.078949248624 gnorm: 0.000509013144 xtb: 6.6.1 (8d0f1dd)
N            4.38229792551572        2.73139565844616        0.79863407425193
C            3.65568140398149        1.87580707952317        0.54552354464198
C            2.78736336937837        0.81165523283547        0.23599464997337
C            1.45177382250331        1.15526587533906        0.03302836560737
C            0.30091535841037        0.39286421682097       -0.10398650117394
C            0.21399470481127       -1.06071313019219       -0.09256409834425
C            1.34026525296214       -1.87657712552478       -0.48356618511605
N            1.05321893950004       -3.05793332083859       -1.07435717983420
C            2.69696734476702       -1.60592157136649       -0.34010823172582
C            3.37561304121837       -0.46773185237812        0.08978036751593
N            4.70890879224644       -0.57339935004927        0.30931002868050
C           -1.02086435834061       -1.66511436558586        0.18252011099985
N           -1.13233039377076       -3.05540575175468        0.36834956371840
C           -2.22188005668780       -0.91669604267044        0.25662883106288
C           -3.42567045529642       -1.57058581269203        0.57422686782836
N           -4.37404463436638       -2.15609488901655        0.85610325691729
C           -2.20172525397288        0.44644520763736        0.00722719440469
N           -3.22312308509364        1.31111974620292       -0.02677732685659
C           -2.66056463876056        2.51294069352535       -0.22121631523255
N           -3.42542088898712        3.61824917506396       -0.37788764483639
C           -1.24334032201306        2.45645071609859       -0.29927024750333
C           -0.91735996676345        1.11847598577825       -0.17082203891851
H            1.27235592207002        2.22304856027466        0.06828229857093
H            1.79294140085523       -3.65796412093252       -1.39198390717195
H            0.09389098476057       -3.34711698096503       -1.18133240228102
H            3.34560348458124       -2.43709133298873       -0.60009825114136
H            5.24843306114075        0.24799980757742        0.52283205484088
H            5.18956087163142       -1.43515552952504        0.12579410308970
H           -2.05498547761367       -3.32211034706394        0.68992902769238
H           -0.40886413726048       -3.45562040745999        0.95076015640456
H           -4.40228444184749        3.52069096734715       -0.16026120471938
H           -3.00362292531144        4.52337894266225       -0.26722080585190
H           -0.60385312955283        3.30333501587281       -0.45652017039130
