31
 energy: -54.656493327645 gnorm: 0.000809616584 xtb: 6.6.1 (8d0f1dd)
N           -5.60808791213389        1.70402705145338       -0.08411610755557
C           -4.55139452932067        1.24924987549324       -0.05482375052475
C           -3.28621209989057        0.66224831815106       -0.02962837822039
C           -2.05270872782315        1.33105123409528       -0.03064343189790
C           -1.02218995221271        0.38334537079636       -0.01499333737933
C           -1.64707588501597       -0.92141874932377       -0.00474852091260
C           -0.87445848116451       -2.06219418412875        0.00781600869696
C            0.51061280046702       -1.94250230075423        0.00823595119048
C            1.25390985595287       -3.13652259809562        0.01773051858608
N            1.82388549640641       -4.13563852063889        0.02554431530711
C            1.18376843923327       -0.67987653012194       -0.00148371528450
C            2.57065264082723       -0.71490031455511       -0.00850226047964
C            3.53455151287383        0.31487367131945       -0.01652816238923
N            4.83048202052616       -0.07580198627645       -0.03438641482580
N            3.38851958422552        1.62963598665426        0.00022553006598
C            2.23524335431874        2.29138547249345        0.00728154343324
N            2.41164651965458        3.63751047885710       -0.00304794229644
C            0.91305286114741        1.82501320237256       -0.00211436033567
C            0.38226520343321        0.53623328322211       -0.00780058012352
C           -3.05139676600534       -0.73499495101083       -0.01381068800320
N           -4.00411233058480       -1.69560403676871        0.03807403924075
H           -1.96035508008125        2.40153341037157       -0.04571817432480
H           -1.31616189724660       -3.04974427671194        0.01783015445282
H            3.00228841614845       -1.70980572121294       -0.00863425291076
H            5.08656912780052       -1.04551859729510       -0.04346060287062
H            5.54132467972734        0.63286727576191       -0.04026860559342
H            1.63885614575901        4.26464184681519        0.12213390556381
H            3.34956842161124        3.98586766621365        0.08231826071605
H            0.17608586331729        2.61716765633797       -0.00292455553361
H           -4.96285410982616       -1.43149507259105       -0.11137492653643
H           -3.74826468852354       -2.65333389592302       -0.12259457175524
