25
 energy: -44.310620257200 gnorm: 0.000199065308 xtb: 6.6.1 (8d0f1dd)
N           -4.98430120749284        1.46398638665393        0.00232448016855
C           -4.04419205052631        0.80927444566216        0.00174114858922
C           -2.89414913128390       -0.02590634870933        0.00063539261753
C           -3.15660321636833       -1.40867270611480       -0.00004094190526
C           -2.23916871713486       -2.43437319620244       -0.00067080234510
C           -0.84787245673472       -2.37253122630362       -0.00048847189374
C            0.03398837298582       -1.29142755145316       -0.00006777434323
C            1.41040586779152       -1.60804918934766        0.00024791699851
C            2.41376829859063       -0.65566718323198        0.00033861292673
C            3.77159140639081       -1.04862180814639        0.00082531251178
N            4.87539822652413       -1.35815097717129        0.00138962776049
C            2.07223096668408        0.70537560244986       -0.00008840347660
C            2.76168894369294        1.91216297323778       -0.00029806365331
C            1.76374744752429        2.90180696487490       -0.00060889096092
N            0.52921663854328        2.40830542404286       -0.00056223948656
C            0.66289573390788        1.06391765272524       -0.00027786467013
C           -0.36171081533005        0.11675982548784       -0.00006205506692
C           -1.67237613313898        0.62189276931763        0.00040413044405
H           -4.20393672935097       -1.68531655826495       -0.00002677378339
H           -2.65427462204984       -3.43443773736539       -0.00118338351428
H           -0.36150147600921       -3.34186224804987       -0.00073978407946
H            1.69395243956935       -2.65122298089551        0.00040870038614
H            3.82336246347416        2.06216743921071       -0.00023735546099
H            1.91434513149859        3.96650583864890       -0.00087430013189
H           -1.69889918955747        1.70707150344458        0.00072312766876
