28
 energy: -50.702403348108 gnorm: 0.000542782520 xtb: 6.6.1 (8d0f1dd)
N           -5.20965555778301        1.21524576406691       -0.01132614290775
C           -4.12126007819325        0.84304621743163       -0.00904408911840
C           -2.80158433454790        0.35196250396206       -0.00545100135305
C           -1.78448823159481        1.29543422142966       -0.00880454715599
C           -0.39957825082251        1.13953911000927       -0.00188002204327
C            0.36354225137661        2.34699801874790       -0.00316694525243
N            1.65850103663928        2.45387747720567        0.00200754470326
C            2.35123174360756        1.30404464516717        0.01000702096615
C            3.70930855032214        1.05376676677057        0.01831371154655
C            3.82923325968960       -0.35553257256474        0.03108915979454
N            4.98976058270870       -1.05899938643903       -0.01011108929893
N            2.64243940087421       -0.98299304723403        0.03043146729458
C            1.70136461490617       -0.00329181135731        0.01493942693977
C            0.31877804906804       -0.11036663730565        0.00660827372468
C           -0.28440233070029       -1.43240593241345       -0.00026918338951
N            0.56749880875500       -2.44861911012980       -0.00559153828506
N           -1.56055664175044       -1.79911839441414       -0.00027989374179
C           -2.65889574459515       -1.07243004017941        0.00240845968456
N           -3.78923124341726       -1.80607382209525        0.01228031514587
H           -2.12979043363692        2.32442162380271       -0.01621404849020
H           -0.17596902611076        3.28698016952766       -0.00856669693437
H            4.51379287236464        1.76033906636283        0.01550941501397
H            5.83727952928389       -0.57850689740065        0.23682671873500
H            4.93990483844057       -2.04089853886584        0.20182462891597
H            1.58319980709570       -2.21504673110266       -0.00200591647277
H            0.19354401711114       -3.38288315158577       -0.01500056087853
H           -3.70499917623430       -2.80722593740468        0.01399984435495
H           -4.69524927195661       -1.36980169439158        0.01058829250220
