30
 energy: -54.948205921331 gnorm: 0.000671662386 xtb: 6.6.1 (8d0f1dd)
N           -5.95622415954592       -0.39424664845023       -0.36746853319168
C           -4.87085628510907       -0.02417025075481       -0.27601703032600
C           -3.53823137955981        0.37475991026621       -0.16428003433963
C           -3.04880556587932        1.67644060131192       -0.03271164309468
C           -1.64310707866634        1.62579109672928        0.04965710381605
C           -0.66390076012211        2.59385887103302        0.22047996860780
C            0.65802498267946        2.20105401941963        0.25986581741650
C            1.08515528342664        0.86613354897029        0.13926223067425
C            2.47732522761535        0.62052598334570        0.03885257236609
C            3.34656222075205        1.72455016804195        0.07217716398810
N            4.12217519909265        2.57614271072050        0.10224077912985
C            3.13367048793192       -0.62963004085359       -0.18535213440905
N            4.44308252122287       -0.59966914275552       -0.50969869100456
N            2.64849485384802       -1.85161937449659       -0.07376045182536
C            1.38329049667274       -2.19077926538540        0.15421620293653
N            1.22537919555246       -3.51543044705523        0.39275799042039
N            0.25188347261194       -1.51258704088149        0.09004587005400
C            0.07447122834464       -0.18404366173178        0.04564217769696
C           -1.24667551893410        0.25283838889629       -0.03304544009772
C           -2.43295581163399       -0.52735987127146       -0.16198141425781
N           -2.43653360231980       -1.85521689158242       -0.26025774435724
H           -3.65267578617826        2.56444433459504        0.00732126891601
H           -0.92142945877633        3.63868339828721        0.30906751662747
H            1.42089113964708        2.95912748339647        0.36608586233427
H            4.91947610279203       -1.47695439027440       -0.62092368800488
H            4.95149887097264        0.26594332186520       -0.55846843955374
H            0.33246328670311       -3.86616748253983        0.68737448008256
H            2.04918974921316       -4.07622421155900        0.51308613722552
H           -1.51335978763973       -2.27813096915639       -0.20815243998750
H           -3.29050282751393       -2.37939626003085       -0.34424512884223
