31
 energy: -53.836803910055 gnorm: 0.000980680768 xtb: 6.6.1 (8d0f1dd)
N            3.17610040677034       -3.10027660174491       -0.78993995609015
C            2.45920635908819       -2.24070075456327       -0.52667812684518
C            1.51682113721732       -1.23987626448251       -0.23242287843147
C            0.14553860705489       -1.58549087721439       -0.12671095281518
N           -0.18065714067671       -2.95336608087577       -0.23566332485430
C           -0.83832646640687       -0.62073920427569        0.10463090190519
C           -2.17545660696723       -1.02667732080460        0.49938367170027
N           -2.28226114723213       -2.19211956789856        1.17430094604036
C           -3.35320306777428       -0.34767235807615        0.24250018971282
C           -3.51217544657574        0.93475480934341       -0.31286313921084
N           -4.71675978603756        1.26485780608745       -0.84092811145626
N           -2.64262053197082        1.93274668668438       -0.28686495883692
C           -1.37119233587309        1.85552487437444        0.03522919770250
C           -0.47702625750469        0.78598338964016        0.10322467213890
C            0.90167810474504        1.11286472460858        0.13174422086238
C            1.62504029316719        2.29030687775581        0.20477257968711
C            2.98766993358976        1.90684576649597        0.10833679782550
N            4.06025201388519        2.73158172948521        0.21791132920587
N            3.15295510807185        0.58567974397581       -0.04638891286089
C            1.91475333422752        0.07354039351628       -0.03890912009521
H           -0.97685220131842       -3.13819175171458       -0.83176625779354
H            0.61912218777381       -3.50703190422206       -0.51877977366854
H           -3.18523396979637       -2.52841578120683        1.45653938426749
H           -1.47039699136596       -2.77517721811079        1.29605073695437
H           -4.26912950953797       -0.87805041491033        0.47933627770122
H           -5.50863515596948        0.65625215979666       -0.74675133406534
H           -4.86179494901123        2.22555948013435       -1.09714949838812
H           -0.92678069445565        2.83870072725681        0.15158846336321
H            1.27547648857728        3.29710604620676        0.32709985435631
H            3.92918763636641        3.71149654387349        0.03493945259929
H            4.94856360314318        2.33023993826339       -0.03210232611213
