33
 energy: -58.081233435644 gnorm: 0.000636537546 xtb: 6.6.1 (8d0f1dd)
N           -4.38409450152393        2.14189091298344       -0.32447948975928
C           -3.39480428008015        1.57491896505392       -0.18356407142686
C           -2.14105039885147        0.95502621032211       -0.01897187465379
C           -0.98810643120228        1.73663326707684        0.07262080253597
N           -1.13422754749579        3.14101237816436       -0.00953383036948
C            0.29364632008223        1.14679984450858        0.24642985980760
C            1.44508352018780        2.02172905812267        0.38131094161597
N            1.26771444781407        3.19862923396678        1.01577051512557
C            2.69013203229658        1.78380580829598       -0.17803810513177
C            3.28816490113697        0.56811062665592       -0.53391758092784
N            4.48098703485127        0.61859528336980       -1.17911253876228
C            2.86651817848969       -0.67411601294881       -0.04847935567244
C            1.65532415790255       -0.97740505931279        0.54313042121473
N            1.58380177190762       -2.05252833423240        1.34830090404720
C            0.41172534424032       -0.26793675433172        0.28790526304720
C           -0.73517803132465       -1.04946012100004        0.09459003655088
C           -1.00296924205970       -2.44106519133143       -0.09116386371397
C           -0.11985055948143       -3.50423241181286       -0.20752785250598
N            0.62075625522555       -4.38468479571714       -0.30284545529415
C           -2.39335654046835       -2.52615151381896       -0.27449542135953
N           -3.00478086304534       -1.34643962056144       -0.21893351334087
C           -2.03505506912496       -0.44030364214675       -0.02866198685497
H           -0.54822825755292        3.56234883774286       -0.72038102135098
H           -2.10444117912122        3.39215190875251       -0.16708989126694
H            0.33332576123358        3.48460818333311        1.26907399991345
H            2.01037888880142        3.87585337060619        1.02610459032998
H            3.32941082775658        2.65427195837956       -0.27716368717060
H            4.91926004790687       -0.23253738730161       -1.48107351795497
H            4.80487868587737        1.48325064745382       -1.57283869878056
H            3.60377410325612       -1.46700798653496       -0.06621708501874
H            2.32242693449200       -2.73712116358645        1.33803201969708
H            0.68068122166520       -2.37886245899442        1.65307316316184
H           -2.95466497199156       -3.42599805575666       -0.45300190523163
