29
 energy: -51.211601478317 gnorm: 0.000585437112 xtb: 6.6.1 (8d0f1dd)
N           -5.46689479811729       -1.38614308935730       -0.54494752777691
C           -4.47506430662954       -0.83910987256966       -0.36246301550117
C           -3.25218126090897       -0.16530285271686       -0.13002353816831
C           -3.34636782801282        1.21937611466719        0.10597106345727
C           -2.32263338163820        2.10622911446649        0.23465446366213
C           -0.91866707498704        1.92088384143738        0.11797432504589
N           -0.19481780267991        3.03322173822889        0.10058864035862
C           -0.18530798353627        0.67941268165855        0.05424596549682
C           -0.76220620212988       -0.64817664051421        0.08361839390290
C           -2.11573894281302       -0.95455678193358       -0.10933374330302
C            0.10604451854384       -1.79075338261965        0.20777280958211
N           -0.43752855326582       -3.05704673962104        0.35755936029169
C            1.47917801622355       -1.67487837656629        0.11515855879356
C            2.04387043560767       -0.41836399612580       -0.03640213532719
C            3.36804441167900        0.05807119219951       -0.13322433226335
C            4.53647843389368       -0.69862116188053       -0.17204143251903
N            5.49481831160335       -1.33378116041276       -0.19914315838778
C            3.25382772532727        1.45859704239864       -0.17180204586460
N            1.99377434495133        1.87012592968864       -0.10625657496391
C            1.21038183694089        0.75438352302383       -0.02762087607275
H           -4.35261890741843        1.61626159624180        0.16601997876322
H           -2.61172066225023        3.14026129142305        0.38792829248547
H            0.84779807831404        2.91981584048081        0.00772021199106
H           -0.64859241596407        3.92959173083280        0.16357345145874
H           -2.31605784725876       -2.00403598393651       -0.29138840832810
H           -1.23874176184731       -3.15278600549492        0.96028932173749
H            0.25005148711260       -3.78059856918979        0.50260065444753
H            2.10653676360186       -2.55312489273097        0.17553427752627
H            4.05829740105821        2.16848546092229       -0.24491138332480
