31
 energy: -54.643525877841 gnorm: 0.000669158092 xtb: 6.6.1 (8d0f1dd)
N           -4.46835422121633        2.64158212603169       -0.29390342857144
C           -3.72637211737999        1.76496337819135       -0.25919599049530
C           -2.80256015877406        0.70298811027321       -0.19873573140454
C           -3.19489769792922       -0.52474201869267       -0.73627893024725
N           -2.70775366782554       -1.68446731366933       -0.39992028690821
C           -1.57703035408933       -1.97634275016764        0.20674228228981
N           -1.57507658065608       -3.11086825395824        0.92311545096191
C           -0.34329715515021       -1.23540125403683        0.05528953453018
C            0.87224678006553       -1.94422942732457       -0.08157950824449
N            0.86749560721584       -3.35405535231549       -0.16167301259672
C            2.08490807189037       -1.27488204652669       -0.10031358545109
C            2.11282500208754        0.10284989201275       -0.01728310591789
C            3.18724571451555        1.01640702548466       -0.08639591232365
C            4.53097128906826        0.67533965091626       -0.20233590197878
N            5.63892259623890        0.37427368640410       -0.29254638128826
C            2.63639592147599        2.30971050304397       -0.06184692086190
C            1.25957550432168        2.22876013090718        0.06062693077239
C            0.88652976945107        0.86737469277096        0.10300425036861
C           -0.34792581597082        0.19315332757758        0.15818851988530
C           -1.54388758186953        0.96292246359485        0.39905291406334
N           -1.42625575870568        2.08173214399916        1.12875233755251
H           -4.07302135032672       -0.56183196866833       -1.37037919854249
H           -0.69571877542364       -3.50148090833423        1.22532328310116
H           -2.41433584535611       -3.66591295541450        0.94549305205763
H            1.79505732123655       -3.70846263024517       -0.35879599497905
H            0.20539103009610       -3.71805317023053       -0.83579688221523
H            3.00807402173289       -1.83040844641143       -0.19499149158862
H            3.20571324828466        3.21984095156714       -0.12718095684910
H            0.61019935328110        3.08587852353796        0.03560833049861
H           -2.20520505720923        2.71348996365860        1.22085000260631
H           -0.53536809977983        2.32166965282408        1.53122983287636
