28
 energy: -46.672534015215 gnorm: 0.000515206135 xtb: 6.6.1 (8d0f1dd)
N            5.84065764662987       -0.53930145427014       -0.07912590855835
C            4.71073279297758       -0.32854944451102       -0.05249163317998
C            3.32790934086043       -0.07245666858783       -0.01944767590356
C            2.92285722472113        1.27243799476522       -0.09064097339414
C            1.65132297945601        1.77535827057448       -0.06099189449028
C            0.39946849797950        1.10687585255061        0.00490620528979
C           -0.73579628731299        1.90270009964039        0.02952670063855
C           -2.05113476692544        1.41132343510047        0.04644508947754
N           -3.10297803156983        2.28242882924822        0.08680688972095
C           -2.22555563959537        0.03128821752816       -0.01929925309297
C           -3.36312763134341       -0.80435883368806       -0.07182428120636
N           -4.67803144201219       -0.40481766478256       -0.14341267712271
C           -2.91862223597052       -2.14307146115894       -0.01151754347775
C           -1.54338089868156       -2.16454465470977        0.04388653537421
C           -1.06827688878823       -0.82842572472466        0.02525037695209
C            0.23903376974689       -0.35141190952393        0.04652549311328
N            1.18837122951825       -1.29741822875979        0.12037696012856
C            2.48118401146866       -1.19201883920547        0.10432432227157
H            3.72849469456985        1.99461019113856       -0.16583079275840
H            1.57623904303799        2.85579590811271       -0.11347860014702
H           -0.60720351055805        2.97775822612421        0.04368048296091
H           -3.97230019464191        1.93443660909093        0.45598992786317
H           -2.88968547831271        3.24139115204288        0.31115674778863
H           -5.32907443316153       -1.15322075570669       -0.33219090092367
H           -4.85980445788947        0.42705455174376       -0.68529331195939
H           -3.56850587036306       -2.99974065737858       -0.02363758190958
H           -0.91379792309569       -3.03172520346199        0.08502434709721
H            2.98646846335555       -2.15278289069098        0.19331830514882
