29
 energy: -49.606972616976 gnorm: 0.000572486643 xtb: 6.6.1 (8d0f1dd)
N           -4.55579177610502       -1.47047316492502       -0.35619132962461
C           -3.34724641254245       -0.83277426220729       -0.27039203012357
C           -2.09326267212909       -1.43327905222752       -0.14273062642350
C           -1.17718679329961       -0.37341503245876       -0.02963491697931
C           -2.01271386179151        0.82759856468679       -0.09580078829227
C           -1.43444206184822        2.08606759150116       -0.03743035960494
C           -0.06145944265796        2.21705882702084        0.05532068854099
N            0.47880429032795        3.49971368620685        0.10426827262763
C            0.79413475909758        1.07471331553326        0.12263763954489
C            2.16297963268284        1.29265262821025        0.33966885977464
N            3.20615223702943        0.53869193387438        0.09772893196801
C            3.15130028647703       -0.74549551745380       -0.25970328347063
N            4.22166819474462       -1.20410225787152       -0.94167299906667
N            2.26004495975460       -1.64507278088713        0.11126447879408
C            0.99840250645811       -1.41055037884350        0.42910084632756
N            0.38754325655020       -2.43205533367035        1.05075409956736
C            0.20455647274103       -0.25397774356056        0.10377977875431
N           -3.30226833283949        0.52094189601730       -0.21984658415536
H           -4.55106088477791       -2.39819000756836       -0.74779965789218
H           -5.31579514477407       -0.87840527273877       -0.65047481888554
H           -1.90684923339899       -2.48787876548478       -0.22630117845592
H           -2.06206454309821        2.96398996053039       -0.08864582993991
H           -0.19207110884331        4.22085435356288       -0.11562156585618
H            1.36163527444593        3.63743973600893       -0.35994912049883
H            2.45103903620580        2.27732782050788        0.69723935242856
H            5.01454795699722       -0.59727213787142       -1.04872838024077
H            4.32685630293249       -2.19475084466923       -1.06686085452924
H           -0.56568853532076       -2.33164609956635        1.35524861093308
H            0.93117562218092       -3.24006213225624        1.29726286057855
