27
 energy: -51.757315848663 gnorm: 0.000705153637 xtb: 6.6.1 (8d0f1dd)
N            2.49657982968564        3.78967332227003        0.53267801095930
C            1.92685656355189        2.80668999495738        0.37087736014636
C            1.15082519429842        1.64299813809077        0.19445455165350
C           -0.25791695633910        1.75652897155448        0.12727426452313
N           -0.82264586763878        3.02845897508186        0.12850607696800
C           -1.05999908687082        0.61394347136857        0.00915138345777
C           -2.47675404924327        0.73432792346134       -0.31181572798155
N           -2.87010900205846        1.69577865710054       -1.15148680694053
N           -3.42470580167137        0.01251125830604        0.24442386436156
C           -3.29573907508709       -1.18085463448267        0.76607792442414
N           -2.44049407695413       -2.10075214686051        0.39297855983103
C           -1.24808418062304       -1.89352172704498       -0.09713898892362
C           -0.47680669290234       -0.70789143674024       -0.02498870461801
C            0.92424281115907       -0.79353179467623       -0.06388769778665
C            1.85397964663732       -1.84767483828047       -0.13055122161099
C            1.62587436409129       -3.21521463650635       -0.25267913391596
N            1.44849157304884       -4.34745261790029       -0.35900164697441
C            3.12713395640152       -1.22467784551911       -0.05531183440630
N            3.06039038821952        0.08969461948248        0.05996910036001
C            1.74778635128007        0.39604620857259        0.06642692740409
H           -0.16822834568673        3.75828534657645        0.37758161970338
H           -1.70509579112699        3.11813101018524        0.61012400783332
H           -2.20702917617758        2.35345491947045       -1.52713557039060
H           -3.84753680295497        1.76921602563843       -1.38194401161981
H           -4.07688060715466       -1.49401470911297        1.44895381268753
H           -0.75571580660967       -2.78565736762318       -0.46936610300003
H            4.07768786902831       -1.72546240247083       -0.09059766624312
