27
 energy: -52.556031021672 gnorm: 0.000604458418 xtb: 6.6.1 (8d0f1dd)
N           -3.81829231135962        3.34268898591918       -0.00057401975726
C           -3.09620233652612        2.45136656691949       -0.00086643045552
C           -2.21410701256329        1.33955333202558       -0.00048317407687
C           -0.86909432268772        1.67581011157360       -0.00038054879317
C            0.29742335167210        0.90327491562741       -0.00009893302567
C            1.51600455735675        1.61156984276562       -0.00001650792906
C            2.76387797776094        1.00373501323735        0.00026363517526
C            3.93748815439662        1.79130662859814        0.00023605711293
N            4.87308154114628        2.45248666490160        0.00030721311346
C            2.82368297140908       -0.39479668992543        0.00048225644572
N            3.83977444190203       -1.25835668272422        0.00077581888697
C            3.23693415397484       -2.45495726234040        0.00081559558043
N            1.90299475970177       -2.45944753770966        0.00063974910360
C            1.57914179857547       -1.15523138016479        0.00042383082448
C            0.31787336197872       -0.54830096033744        0.00015149431749
C           -0.78365285093406       -1.41137288038708        0.00017170333943
C           -2.14507512112702       -1.17470505817773       -0.00002227438930
C           -2.96189144315421       -2.33536855512217        0.00020598259008
N           -3.64636057048275       -3.25551486110526        0.00022515514698
C           -2.84455648815726        0.06522694986812       -0.00032883782788
N           -4.18538223485115        0.02820828590065       -0.00048039387562
H           -0.69479428213940        2.74764815853013       -0.00053266927798
H            1.47885713248770        2.69208570414407       -0.00014555722233
H            3.80313264445622       -3.36746125673381        0.00096896012945
H           -0.49027797156589       -2.45702220498349        0.00043970196845
H           -4.72213132731076        0.88124862401146       -0.00071056926364
H           -4.67076123515872       -0.85520394801047       -0.00037090654113
