25
 energy: -43.510912716849 gnorm: 0.000514776097 xtb: 6.6.1 (8d0f1dd)
N            5.04214586971432        0.30852509858629        0.58957569445730
C            3.92407259881450        0.08275550905057        0.44306779535011
C            2.55270018730720       -0.15061529322989        0.25178829432089
C            2.01556721225887       -1.39455597561665        0.58485396402754
N            0.85861190715792       -1.90136442219593        0.24935506154658
C           -0.26802412567445       -1.31924248755475       -0.11202092616628
C           -1.34485299143143       -2.13055601405241       -0.49263468400736
C           -2.64272915804657       -1.65979582011570       -0.45503746864185
C           -2.89765521028326       -0.35643146389076       -0.04287703393204
C           -4.09279104090313        0.37283441870352        0.10389642164152
C           -3.76742811097575        1.67902083016172        0.46878254499356
C           -2.38526347773198        1.80688692165762        0.53600547634588
C           -1.81243518974805        0.55386551970905        0.22378770148529
C           -0.49251137034697        0.14898474448711        0.04013744559572
N            0.45783108401552        1.03505884812260       -0.17688793800701
C            1.75893752306328        0.90988130087703       -0.30018600844532
N            2.38887770576581        1.93899976813764       -0.90352249176224
H            2.66833650133036       -2.09694447717472        1.09588175609050
H           -1.13625660367987       -3.16379564472658       -0.72312219235220
H           -3.46228331404609       -2.32272474452626       -0.69501058080782
H           -5.08345987723394       -0.01144149370197       -0.05773275711037
H           -4.47596500294420        2.46428271535018        0.66167592783479
H           -1.83630074929245        2.69163003504757        0.79911122599923
H            3.39275252328029        1.99639676780057       -0.90022969987829
H            1.84294812212500        2.73567295080049       -1.18262517448330
