27
 energy: -51.749814822580 gnorm: 0.000691554680 xtb: 6.6.1 (8d0f1dd)
N           -3.89676119470905       -3.09159769178086        0.07447713417899
C           -3.33236255213096       -2.09302451799875        0.05016016260648
C           -2.66882585439945       -0.84665929118832        0.02476357621184
C           -3.45487566260957        0.29351674131354       -0.22792207201380
N           -3.14518839541665        1.52637993958306        0.04156315578574
C           -1.99337697595293        2.09116659659995        0.30994373012668
C           -0.70487467416601        1.64602226253478        0.01451325674933
C            0.35639954745982        2.59304979098138       -0.09107605111328
N            0.10062390952926        3.92884148260040       -0.14941406940096
N            1.64803804810270        2.28513744412576       -0.11651353391518
C            1.98766298788038        1.01692379370921       -0.06338601584687
N            3.24051926618311        0.55516115685607       -0.05373305705591
C            3.14547832137567       -0.77762054495466       -0.02700790681033
N            4.22680419712423       -1.56329514750400       -0.01871364888865
C            1.78230953990240       -1.24092174752698        0.00149105523808
C            1.42052607498958       -2.57983979406351        0.03873767237846
N            1.17153152858764       -3.70470425811480        0.07227326975407
C            1.00387486763788       -0.07754154385260       -0.01972553116281
C           -0.36668644147036        0.20977611337444        0.00045354433193
C           -1.27258344105200       -0.84353436959950        0.12720109669049
H           -4.45985952600964        0.15009554069161       -0.61166100863973
H           -2.10082105007514        3.08473252205921        0.73676504197294
H           -0.78631763773181        4.27194394268664       -0.47059389065438
H            0.91211116630257        4.50063113529998       -0.31833723159617
H            5.13455708818959       -1.13359033698121       -0.02626266313672
H            4.13336915001736       -2.56314445619355        0.01094327398663
H           -0.82160321095998       -1.82578861546041        0.22159411032207
