27
 energy: -42.961104702777 gnorm: 0.000943850639 xtb: 6.6.1 (8d0f1dd)
N            1.11170563798641       -3.81477085061551       -0.01165190632788
C            0.54525530695239       -2.81364984701679       -0.00526878956751
C           -0.18752494110072       -1.61229231293653        0.00156936556013
C           -1.57454376041398       -1.72539703953351       -0.00084840601411
C           -2.34656772148284       -0.58370659890138        0.00199680780993
C           -3.73683443165589       -0.38442191143595        0.00035113626367
C           -3.96789918738382        0.98573979347896        0.00044108404546
C           -2.75135162516738        1.66528912914856        0.00199523845177
C           -1.70953263763010        0.72030806363725        0.00345610920247
C           -0.31098011443351        0.86327466493345        0.00456086986299
C            0.21770194121593        2.16317668869670        0.00017362052454
C            1.51646869826704        2.63396687270771       -0.00365924883094
C            2.71096839381891        1.94083381460662        0.00310926072157
C            2.89113556227796        0.55329020694870        0.01869028376668
N            4.17303693013456        0.09235131592988        0.07070997072119
C            1.88199612007006       -0.41834545382421        0.01737603699554
C            0.49235714484637       -0.35506151308040        0.00800156539077
H           -2.02636735001627       -2.70812346348514       -0.00489730696839
H           -4.48105067825130       -1.15920297982556       -0.00082921217103
H           -4.93567281580779        1.45516743589934       -0.00058009783143
H           -2.65532665447007        2.73588138789653        0.00242282607625
H           -0.53663968378168        2.93827126136397       -0.00355397600439
H            1.61330739782413        3.71312840203843       -0.01325714565354
H            3.61741699108622        2.53359429580638        0.00000086281753
H            4.35562641712020       -0.88940622380377       -0.03623525527832
H            4.93866188477281        0.72832039507218       -0.06041692575185
H            2.27242755562233       -1.43200576650590        0.02559053148887
