32
 energy: -58.380066216189 gnorm: 0.000547040557 xtb: 6.6.1 (8d0f1dd)
N           -5.75855951297726        1.75771496996853       -0.00904870752714
C           -4.70116103976128        1.30030511644980       -0.00186770155143
C           -3.42796277791955        0.71662764828818        0.00362336930582
C           -2.33275016454369        1.57825322739753        0.05038692169322
N           -1.04492942734655        1.35775953154264        0.05868379313875
C           -0.41793751506069        0.15411106992636        0.02707984646985
C           -1.00771577385500       -1.18275352483682       -0.00221357590684
C           -0.15884269737020       -2.28485795430739        0.02045722674311
C            1.23815996209143       -2.22119264385628        0.04492064581498
N            1.98072493690725       -3.37538704058974        0.07311105503892
C            1.82106042463556       -0.95468558862866       -0.00457281912529
C            3.16056614762420       -0.49520163183156       -0.06327501458291
N            4.28751142759114       -1.25307150564395       -0.12895104888889
C            3.15021112186582        0.92195558732962       -0.01835691647281
C            4.28304566971075        1.72976880172642       -0.06468584138069
N            5.23021586113280        2.38279609802128       -0.11267427847704
C            1.80899409815621        1.36070256492273        0.03287634437244
N            1.32603170528251        2.59809934841187        0.07280186975090
C            0.96892692856815        0.19775151784597        0.02372963244798
N           -2.31609337710349       -1.50701240005458       -0.03471527414649
C           -3.36198989520967       -0.72307877993116       -0.04034238241851
N           -4.54225566937231       -1.37794245869257       -0.08907926851827
H           -2.57842398075287        2.63917263869979        0.08375305957749
H           -0.63502485472529       -3.25459628301493        0.03154125702747
H            1.46213192553079       -4.21789059034659        0.26931714468494
H            2.87922585443502       -3.32559149450523        0.52586608986025
H            4.21790246874899       -2.16010976301822       -0.56109479842749
H            5.14618306713704       -0.75283978394590       -0.30528767000153
H            1.92611114624946        3.40465139895350        0.06950875279970
H            0.30481912191795        2.63913401265765        0.08357924875362
H           -5.41503845609089       -0.87974377263776       -0.10289732443671
H           -4.52506602559632       -2.38147298790058       -0.12370825151752
