29
 energy: -50.407166143298 gnorm: 0.000732658113 xtb: 6.6.1 (8d0f1dd)
N           -5.96056875608164        0.42947981784547       -0.19440971437888
C           -4.83030856110520        0.23283920094220       -0.11660593929290
C           -3.44461377518543        0.00089602088150       -0.02932162147000
C           -3.00728101493006       -1.31063273805535       -0.25447020510519
C           -1.73746209667022       -1.81935905007156       -0.18514871635254
C           -0.48193477876695       -1.18912752915901        0.00731767705662
N            0.52288893876654       -2.06038073190642        0.07216057337349
C            1.79810231793156       -1.67214818457925        0.12388622102296
N            2.72021081588839       -2.66740732875175        0.24321571080130
C            2.13331374842291       -0.32920282480703       -0.01315987101877
C            3.32156918525778        0.42230918118076       -0.11968017132654
N            4.60379110378327       -0.04360711186818       -0.14914616807408
N            3.06545627900800        1.74206164054317       -0.17630729339496
C            1.73743621771797        1.89789316847136       -0.10509991425844
N            1.20271226945010        3.14740368425494       -0.14604075500075
C            1.06137992351909        0.64220171919809        0.00357782487438
C           -0.26925899230225        0.24403197291571        0.10537225940469
C           -1.28491161452089        1.20533751701882        0.36762961790793
C           -2.64513973865671        1.10796101555284        0.31673375574751
H           -3.79413653323049       -2.02275175508400       -0.47812435676302
H           -1.63619906654881       -2.88696311916546       -0.33224942651231
H            2.33939900986315       -3.57130356042588        0.47490891563886
H            3.61454491983717       -2.43576795192406        0.64137733421512
H            4.74826303333943       -0.94222274364175       -0.58189484898341
H            5.28574366856566        0.66057861430415       -0.38743588058339
H            0.28716703819697        3.25426601952305       -0.55277615686368
H            1.87198847364964        3.86633327064933       -0.37596526791803
H           -0.90192085320063        2.16919165119786        0.67678245798795
H           -3.19844395999840        2.01062261396034        0.55369418876619
