29
 energy: -50.405989261506 gnorm: 0.000518598248 xtb: 6.6.1 (8d0f1dd)
N            3.38001786460511        2.76768326257822       -0.00033201584574
C            2.66986739338623        1.85998098618017       -0.00121366249919
C            1.88824315500363        0.69060074419448        0.00230261298672
C            2.65243289351909       -0.49739394483616        0.22009816784882
N            3.92805986780332       -0.35101592702800        0.64743539213158
N            2.31987331507644       -1.75286218084245        0.00040782270932
C            1.11347315266173       -2.23332719852295       -0.28235733380469
N            1.13385297263826       -3.56290734193267       -0.57952282752054
C           -0.13437258769097       -1.61250941780642       -0.19478817816713
C           -0.46166904941800       -0.26088250892539       -0.04838999397261
C            0.48665828753067        0.84095666240283       -0.14083058508410
C           -0.00413317917403        2.14539146113684       -0.34119540050320
C           -1.34540637313785        2.46096480702715       -0.36054669561434
C           -2.26585380244891        1.45288028717257       -0.12462246644623
C           -3.66964921926618        1.40011911162518       -0.00975751772085
N           -4.09629459632170        0.17341603033185        0.27018017406996
C           -3.00586639305809       -0.62324405309260        0.33209415077483
N           -3.15945874098924       -1.94358795314212        0.63341957087066
C           -1.81284642163253        0.10344077097089        0.06750374886359
H            4.49908404472938       -1.17581239254929        0.69751696374269
H            4.34948570445506        0.55827071343119        0.72300197898416
H            0.32610713331154       -3.99962369446214       -0.98521880010816
H            2.03476072542619       -3.97938101435082       -0.73792753923484
H           -0.97533153342184       -2.27540641298968       -0.34688159360122
H            0.71838385847590        2.93741195280530       -0.47432428272620
H           -1.66446749616803        3.47945147668682       -0.52594692769660
H           -4.36713038839074        2.21156773001659       -0.10914412451342
H           -4.09159525984468       -2.17208926122367        0.94725512893395
H           -2.41026108906009       -2.38987801195418        1.14009297024121
