33
 energy: -62.118490732177 gnorm: 0.000973089614 xtb: 6.6.1 (8d0f1dd)
N            5.65056366575551       -1.34421974896706       -0.41444996371995
C            4.57913211042504       -0.93731364768139       -0.30024094065908
C            3.28941006948607       -0.43122409096021       -0.16836275813921
C            2.95576376583406        0.95061037651164       -0.11869730733018
N            3.85939568170416        1.96710226046127       -0.14880240864396
C            1.55566895110938        1.06159683891369        0.01563860480754
C            0.65677775024709        2.11093975778269        0.22957903109755
N            1.03691304436596        3.41459281005627        0.37167184772240
N           -0.65269000309698        1.88946474817398        0.25080724208876
C           -1.18325643310288        0.67177320634997        0.13919947600342
C           -2.58784911674524        0.65735892867595        0.00580493033804
C           -3.21720037427014        1.91406340303143       -0.02823657180062
N           -3.80149228477528        2.90580744018850       -0.05184872590063
C           -3.43233049330905       -0.47580390658998       -0.18858954662884
N           -4.71308237411494       -0.23599866580902       -0.54171409993128
N           -3.15170056152252       -1.75551768828533       -0.04272477045579
C           -1.96033349822927       -2.28937469246054        0.23580823306340
N           -2.04404121138593       -3.60355824130126        0.56126807609284
N           -0.73192883884325       -1.81636907224958        0.19184971386286
C           -0.34823597478977       -0.52858493716153        0.10384892491688
C            1.01055210393191       -0.26792910326944        0.00365458046288
C            2.10078868285972       -1.18537494718474       -0.09350072377104
N            1.92638750368862       -2.50999972490648       -0.12382507123221
H            3.54246752632382        2.86093258696932       -0.48801391645243
H            4.80408521933662        1.71569188187905       -0.39785821097671
H            1.93212784106708        3.60012204999662        0.79129067817047
H            0.28294838618129        4.02844020789625        0.64145791021773
H           -5.06277856306987        0.70416214821655       -0.60537759261211
H           -5.33626549723846       -1.01938433925856       -0.62185127229134
H           -2.93474151867162       -4.05794076329315        0.47865837938233
H           -1.20790042884325       -4.14684640526919        0.67043362485588
H            2.70405467243526       -3.14584868552578       -0.10491711314045
H            0.96254676365709       -2.80215755242933        0.00805373900348
