30
 energy: -55.744288192383 gnorm: 0.000706464799 xtb: 6.6.1 (8d0f1dd)
N           -5.28054672999403        2.57000872735391       -0.00526083873166
C           -4.34029614086227        1.91409474161990       -0.00809260445828
C           -3.17492761241921        1.10715124656508       -0.00689589708954
C           -3.38428226893009       -0.27050636162464       -0.00469303158359
C           -2.43692979587793       -1.27628425266950       -0.00417193368499
C           -2.99055716427070       -2.58088478883225       -0.00316280063124
N           -3.44606702455727       -3.63484347283657       -0.00408867010022
C           -1.00548647385028       -1.21626055203747       -0.00165605357835
N           -0.37803839312515       -2.38408262527406        0.00013919806239
C           -0.17326880721833       -0.03588916982234       -0.00042008657733
C           -0.63841889744052        1.33895584311444       -0.00837171282092
C            0.31866193101477        2.39380461542176       -0.01368171256666
C            1.66959887696067        2.20294317797038       -0.01033752786484
C            2.14505022749372        0.89190688294015        0.00040097032148
C            3.42415283361307        0.32499274477298        0.00925623748941
C            4.66568962720839        0.94878444225134        0.01880511215748
N            5.71120527245073        1.42983361922323        0.03334828094860
C            3.20678830025084       -1.08863428963463        0.02109465693403
N            4.16869060631196       -2.02906819699556       -0.00395324699811
N            1.90873208834853       -1.39141449710651        0.02016397450863
C            1.21591301771350       -0.21473063406335        0.00597476641401
C           -1.96019579775063        1.78708146876212       -0.01036162689445
H           -4.41896451390968       -0.59623613862824       -0.00404557162511
H            0.66754488078078       -2.35580428087302        0.00365680672783
H           -0.90632121369561       -3.24296569510702       -0.00379711820609
H           -0.06111523101522        3.40473082296095       -0.02077842433527
H            2.35642989607999        3.03566500448830       -0.01512201312132
H            5.12665576107340       -1.75394313259928        0.12224599625913
H            3.91621457142613       -2.99254004032251        0.12408242461372
H           -2.06907287520958        2.86641271968236       -0.01481678426874
