34
 energy: -61.829881201028 gnorm: 0.000937801668 xtb: 6.6.1 (8d0f1dd)
N            5.60270876506437       -0.72261858146729       -0.09405608212918
C            4.47121253970091       -0.49861673448106       -0.04611241917448
C            3.09842851664439       -0.23567727437797       -0.00285200946168
C            2.70028130716337        1.12213880073500       -0.01114528549365
N            3.69228488987001        2.04825107277560       -0.01982774312385
C            1.39498042969539        1.61355152379157       -0.00436549631244
C            0.16054045991008        0.96015772883279        0.00499161731189
C           -1.00580955864405        1.77859963420193        0.01059603341580
C           -0.86859051544118        3.17450626182706        0.05026591204845
N           -0.82518450023731        4.32526740712516        0.09622596745970
C           -2.33318561355821        1.28855682277590        0.00952083854976
N           -3.39482519307235        2.14998178391443       -0.00161693539160
C           -2.48743148427554       -0.09222840640181       -0.02269071096380
C           -3.58273569899466       -0.99395559816551       -0.05512103918950
N           -4.90866827009133       -0.68862203811967       -0.09968428924709
N           -3.18587695480972       -2.27999967631788        0.00188699278091
C           -1.84757221659710       -2.26577559399373        0.04411896646132
N           -1.06848002778843       -3.34539174404352        0.08890594923840
C           -1.32612828398314       -0.92995989221027        0.01478391457523
C           -0.01442661527307       -0.48246388075043        0.02365637511841
N            0.92694528753107       -1.44903880312219        0.04876152975910
C            2.23447988964500       -1.37037908463424        0.04156665918340
N            2.84940146606001       -2.58340359158791        0.10449373015882
H            4.65480031315135        1.76257324362239       -0.06672764789667
H            3.46852920900644        3.02546473667355       -0.07089307658133
H            1.33651028846895        2.69662798072104       -0.01494752109164
H           -3.18757284093633        3.12146303109859        0.17608665630151
H           -4.26266940005545        1.81135091214546        0.37898749662029
H           -5.50277743774637       -1.49045486620273       -0.24861192322564
H           -5.17329859536995        0.14213909994157       -0.60469240942400
H           -1.46060331178392       -4.26581322384734        0.16963586532394
H           -0.07733321336811       -3.12993431942775        0.14362169845364
H            2.28871184305822       -3.41241664979301        0.02150986493475
H            3.84586323275740       -2.65241108823943       -0.00629412318927
