27
 energy: -52.545467854835 gnorm: 0.000850573482 xtb: 6.6.1 (8d0f1dd)
N            4.75916460924447       -2.23927419216792       -0.27237419012858
C            4.03240010712678       -1.35986726809161       -0.16374488666647
C            3.16512810056323       -0.24858876909286       -0.03682892227397
C            3.74681709401858        0.97247173881543        0.39355172397313
N            3.26881571268553        2.15997260432703        0.20559464393958
C            2.08213847453994        2.56392990359023       -0.17306968610295
C            0.85400983302174        1.89846338490485       -0.06322076921635
C           -0.32328745896046        2.67613576487502       -0.05663121310330
N           -1.54687322846111        2.20922504612710       -0.00122943715554
C           -1.69713596982846        0.89430345097691        0.02297368265808
C           -2.89292629314924        0.15645094376785        0.04976713512949
C           -4.20223962188410        0.63721491214903        0.07639966874689
N           -5.30329039270042        0.96583554206085        0.10017817397782
C           -2.55231319738881       -1.22180458201095        0.04693022019580
N           -3.42286829364472       -2.24094033191196        0.07314860182143
C           -1.13615824483999       -1.34445102417014        0.00199940578011
C           -0.48743171419913       -2.57706639521981       -0.00283367604172
N            0.00164939324528       -3.61955702052465       -0.00528263175947
C           -0.57996352029905       -0.04684153608546       -0.01397878550764
C            0.73097836541444        0.43987604444902       -0.05118418603674
C            1.80481887832372       -0.45829806216698       -0.20696473581379
H            4.72158638265958        0.93369450181336        0.86925462065799
H            2.05888270700299        3.60244483774892       -0.48912041383781
H           -0.23847116777953        3.75448821661693       -0.07949099979004
H           -3.09409651531036       -3.19095965595907        0.06460535457989
H           -4.41079314619464       -2.05612482255057        0.09754394213843
H            1.51848073830042       -1.48708971237219       -0.39784873176459
