29
 energy: -51.192739045647 gnorm: 0.000957427667 xtb: 6.6.1 (8d0f1dd)
N            5.62969074540689       -0.26605175294350        0.10136512873415
C            4.48411973004749       -0.31403755255907        0.03623397549279
C            3.08067831511990       -0.38812496234401       -0.04780498215072
C            2.52316238846773       -1.55991696467421       -0.62838900150071
N            1.31831409631697       -1.99658705137146       -0.55183360422727
C            0.17760095020875       -1.44007606338216       -0.11606775287697
C           -0.85186362121648       -2.30786425247385        0.18563729861473
C           -2.18569095765331       -1.88389086216367        0.32396801824755
N           -3.14589281874463       -2.76826033351764        0.68126775620467
C           -2.47363897286124       -0.55344092517175        0.01690776558857
C           -3.69371882748200        0.13917611102115       -0.08269627922014
C           -3.43782632243927        1.44501388124421       -0.45858615677389
C           -2.05109011370526        1.63549714594508       -0.57126274186936
N           -1.49214913201434        2.74333229492897       -1.10589322690474
C           -1.40779522246753        0.39117544296317       -0.23748175580480
C           -0.07896091159642        0.01043680373262       -0.09327870541563
C            0.96014368638696        0.90751541528609        0.29125810349440
C            0.56023581577202        2.14899801745170        0.82564474513679
N            0.27416566987903        3.16941084162509        1.27340164132068
C            2.33745027515424        0.69834975871762        0.39034085553001
H            3.20873469461045       -2.21892814294149       -1.15535609307456
H           -0.61885718091860       -3.35951328658844        0.25734707257392
H           -4.11204331467261       -2.50419969760167        0.61495054025111
H           -2.92249385009917       -3.74638327261711        0.73121050888904
H           -4.67098519368621       -0.27169560572357        0.09775983301260
H           -4.17354921640619        2.20466489282833       -0.64721661271160
H           -0.50949828630459        2.92403953644467       -0.99410733408326
H           -2.08260991241547        3.55347978467004       -1.19728125041081
H            2.90163455420605        1.52514307421403        0.81062325703262
