29
 energy: -50.406521835753 gnorm: 0.000483243567 xtb: 6.6.1 (8d0f1dd)
N           -2.72108598504871       -2.96087904267063        0.06801431695814
C           -2.35598859358314       -1.86989303699345        0.03942551601891
C           -2.00466747526886       -0.50489923044079        0.00275106512793
C           -3.09585084675132        0.41336768586111        0.07464916485704
N           -4.32491857624924       -0.10473249002796        0.29879132612426
N           -3.10123303160523        1.72554528596348       -0.06964798598723
C           -2.04519285493014        2.51401213886137       -0.20903507449017
C           -0.69394478914784        2.27073526613724       -0.17540283283713
C            0.01146061923227        1.05092360267022       -0.08217140802777
C           -0.61783303831414       -0.26650499614067       -0.07776383894962
N            0.09463591825734       -1.39162477408352       -0.15102788752913
C            1.42247003346681       -1.38809147261545       -0.14210105039544
N            2.01283315863276       -2.60959492645180       -0.24783705074356
C            2.14119573756545       -0.19783348699826        0.01309570727617
C            3.50343843234517        0.11896845355697        0.14153491269175
N            4.55285998069153       -0.76271860512900        0.21416982228849
C            3.61515429291730        1.53117303751469        0.15234455305670
C            2.36329068248677        2.08862535848028        0.05687635863636
C            1.40306106889131        1.04201261848240       -0.01494549402195
H           -4.47169972266128       -1.09816787859593        0.33862498908647
H           -5.10555303345008        0.52732505778633        0.28156131338865
H           -2.34231721799825        3.55136088884504       -0.34359744734184
H           -0.06647670900505        3.14906607813746       -0.24681947232848
H            2.93912553465751       -2.65750554790186       -0.63726048075975
H            1.37912464412136       -3.35903828770047       -0.48046789448803
H            4.35412434524928       -1.65723809866813        0.63530197448699
H            5.43081907245529       -0.35877177588040        0.50383674658886
H            4.54382704685429        2.06667192722855        0.23635469362968
H            2.15217056368876        3.14168599997327        0.05435958578378
