30
 energy: -54.928125383506 gnorm: 0.000941787798 xtb: 6.6.1 (8d0f1dd)
N            5.55521613175931       -0.60059869061521       -0.75471882171659
C            4.52662291483075       -0.15772999246818       -0.49162763888376
C            3.25573565664477        0.33229057636098       -0.18395251211896
C            2.93465211884501        1.60134569455587        0.29214256527007
C            1.54229477574713        1.67348576071035        0.41895585441979
C            0.69724079976290        2.70083821178767        0.81099282377176
N           -0.60611497393287        2.60995509830106        0.70241500855048
C           -1.18226761309740        1.46275899448624        0.29568915112373
C           -2.51958156704112        1.60891340845399       -0.04728585596120
C           -3.43459930138607        0.65285885114513       -0.52118598793259
N           -4.55580051098739        1.10425783996948       -1.12734289090139
N           -3.40016044342285       -0.66273205677254       -0.37390097824847
C           -2.41721755048191       -1.38867734484810        0.12767870002211
N           -2.79495036050717       -2.65179442077294        0.42705450374885
C           -1.04062175696800       -1.05310797209976        0.28407290171774
C           -0.23977320059297       -2.12056042104018        0.69998387954326
N            0.37866912558703       -3.02500587208713        1.06373232850025
C           -0.41776357442256        0.21747859571311        0.16564439584711
C            0.96821205086759        0.38881330211191        0.06294502993804
C            2.06278751691883       -0.43776674969166       -0.33567949091744
N            2.07307472831216       -1.63951642022002       -0.94819998681985
H            3.63290362609928        2.38812764474980        0.50884939792654
H            1.08079650630765        3.64699445503325        1.17188322038641
H           -2.86833445960718        2.63254029043232       -0.01076020050911
H           -4.73295828152223        2.08683654291584       -1.22193613708704
H           -5.25485889329147        0.43838761897918       -1.40412389102986
H           -2.14699929971101       -3.32428372725880        0.79733255502752
H           -3.75772469457563       -2.89894327793561        0.28589934298998
H            2.98178820945068       -2.04953133225020       -1.10581229740945
H            1.30967200331353       -2.28504760384726       -0.83779124194721
