30
 energy: -54.930041105140 gnorm: 0.000804192054 xtb: 6.6.1 (8d0f1dd)
N            0.01214116646850        4.46028218601430        0.77291472350688
C           -0.23281024120916        3.35362532390240        0.57752300203572
C           -0.58050068371050        2.01115628967780        0.34253680729368
C           -1.93611952099160        1.70530653646157        0.30344480616475
C           -2.29987586922625        0.40956086568685        0.01863744907947
C           -3.54345927975429       -0.24263531433663       -0.20153691536225
N           -4.77364962174717        0.29712039553462       -0.17602035378285
N           -3.35878398996184       -1.54345741678224       -0.51299364468492
C           -2.05315953230262       -1.77725424921752       -0.47003558450715
C           -1.30312795012807       -0.62219750992898       -0.13754952592218
C            0.06690540044635       -0.36268328693175        0.01660117413165
C            0.98607648939804       -1.43471576047757        0.14694955878162
C            0.47065878772556       -2.71327968750794        0.42684474495684
N            0.17532508423297       -3.78811672663704        0.71821751919804
C            2.41243437152719       -1.41667509610897        0.10880801652259
N            3.06619683634552       -2.57444009849721        0.34366328506651
N            3.23732347137464       -0.42687930439468       -0.19240925879224
C            2.94701024487064        0.86131744478613       -0.28584616518240
N            4.00381775220484        1.62541194356751       -0.64374400345975
C            1.73989502932872        1.52940319570876       -0.01278820892082
C            0.44764609517641        1.03819411138275        0.12721833587884
H           -2.66462290601789        2.48868923837665        0.46109196196477
H           -5.56020072970557       -0.31886719714703       -0.28249309270623
H           -4.91598793740230        1.22977820994200        0.16603680403983
H           -1.69079167361725       -2.75600280983368       -0.71866977644237
H            2.57661645384771       -3.42636571084504        0.55396380961082
H            4.06838266794506       -2.56352536225497        0.28101306255746
H            4.89085126810823        1.17695947547965       -0.78677927867906
H            3.93527008504419        2.62546806684190       -0.68090698009464
H            1.83031233722978        2.60888779203821        0.02235186394750
