25
 energy: -43.513586475894 gnorm: 0.000584950446 xtb: 6.6.1 (8d0f1dd)
N            3.84775009364183        2.79443402636449        0.10713500274854
C            3.13687355107707        1.89430437830558        0.10376709034559
C            2.26251881545956        0.78298806982790        0.09121910896268
C            2.80449442217470       -0.45692664632196        0.45112187974133
N            2.29495607989588       -1.63307478556525        0.20567435986460
C            1.08403993460748       -1.97718389449405       -0.16404740602745
N            0.99225870879840       -3.18941483137310       -0.73638981171661
C           -0.14522791978748       -1.24864342011789        0.08418674211151
C           -1.30230556401185       -1.96173253345277        0.36083990067422
C           -2.55709162717706       -1.35805771924517        0.45918557806768
C           -2.66616226649537       -0.01852583789300        0.18109351950603
N           -3.77649071317515        0.75715633548868        0.15748411668560
C           -3.35507515440382        1.97282224930293       -0.14436583776533
C           -1.95784549813283        2.05870287972204       -0.32720459617231
C           -1.47721579588473        0.77317276306413       -0.13023842628580
C           -0.18578340070452        0.18681054197944       -0.09050457181288
C            0.91912976839812        1.02985270621654       -0.20946362829252
H            3.79602538130364       -0.47991311149029        0.89044223471359
H            0.11062632175984       -3.55049351193846       -1.05346982384921
H            1.83686288517489       -3.71175202580986       -0.89745914646632
H           -1.23039924034371       -3.02623145508490        0.53598056660229
H           -3.42889133631183       -1.94120926010966        0.71130512152372
H           -4.05807235686710        2.78278106763970       -0.23341207419992
H           -1.41676261148613        2.95222614726547       -0.57362231793282
H            0.68476173239008        2.06356721691953       -0.43336504882641
