25
 energy: -39.513881104633 gnorm: 0.000628564830 xtb: 6.6.1 (8d0f1dd)
N           -4.00658473326906        2.34761971844983       -0.00527171689031
C           -3.26825658080065        1.47054570026127       -0.00398404048490
C           -2.35862727367499        0.38015761308227       -0.00305802450522
C           -2.94547993065088       -0.89011467486554       -0.00282307601700
C           -2.28414732648315       -2.10364293117224       -0.00159112338236
C           -0.92281216434502       -2.35322911701142       -0.00024182599922
C            0.19773443129797       -1.50671615829211        0.00014330916288
C            1.44861777487074       -2.14606709430446        0.00171211645108
C            2.65191181922647       -1.46923334921032        0.00214459544957
C            2.65232119713161       -0.08605955762274        0.00093835547639
C            3.68107588436043        0.86198006502521        0.00091428879698
C            3.09517136283256        2.12744696136165       -0.00066580639287
C            1.70988501073524        2.00347311270688       -0.00162618760209
C            1.38407287929449        0.63343743931793       -0.00066663546577
C            0.15592557891156       -0.04200508758417       -0.00100100097732
C           -1.01436953656302        0.73115476794074       -0.00229974907430
H           -4.02796905988852       -0.91401841607310       -0.00363482045206
H           -2.91832434010098       -2.98156051159076       -0.00161452897724
H           -0.66771187071799       -3.40755732272383        0.00067159460237
H            1.46147903097211       -3.22681972439191        0.00260742235384
H            3.58269774271591       -2.01874343988295        0.00339081964481
H            4.73390186303278        0.64865192971390        0.00193130896144
H            3.63105237267556        3.05993492391317       -0.00108996679201
H            1.02554975061924        2.83208721682393       -0.00292143187414
H           -0.83870022348239        1.80010773752875       -0.00275833081255
