30
 energy: -54.926792467161 gnorm: 0.000602270144 xtb: 6.6.1 (8d0f1dd)
N           -4.91725650044362        1.65055507823193        0.16296795128627
C           -3.91826776862584        1.08011193106780        0.12866149362635
C           -2.74542398195527        0.33151618615784        0.08923354426797
C           -2.69744268921712       -1.08527027489164        0.06387819845018
N           -3.76649696565539       -1.90243647521389        0.07117900262731
C           -1.34191954226760       -1.50587466292163        0.02312289823897
C           -0.97428606085071       -2.84598908820397        0.01526531937235
N           -0.73560976667802       -3.97435238054552        0.01251198160977
C           -0.52675244075439       -0.34936404443356        0.01533507906439
C           -1.41924082894439        0.79887048735142        0.07601892798835
N           -0.98858017799127        2.04660415308070        0.13426457953031
C            0.31301429394573        2.27252691777150        0.08370013695253
N            0.64979644727204        3.60486316792581        0.13889228466180
C            1.30708091515978        1.25394352935198       -0.05931045818816
C            2.62897695266708        1.64424502936446       -0.30343618563211
C            3.79912755662284        0.91851961969276       -0.28989918831848
C            3.92919822284494       -0.45598687821450       -0.00201730650818
N            5.14088288135146       -0.94316031003462        0.32626713554418
N            2.98816137486889       -1.39321921076754       -0.11485772495226
C            1.70262644812136       -1.24708512164520       -0.22920732619751
C            0.85065090069053       -0.13309453253178       -0.05406610662625
H           -4.69279078682100       -1.51529698997870        0.10121390255992
H           -3.64003197358311       -2.89890092227428        0.05900036557897
H            1.49539393642704        3.87399749122463        0.61197283947278
H           -0.14956620757743        4.18919958634947        0.33372689171747
H            2.76134624641161        2.70047727365327       -0.50330523186313
H            4.72146444800379        1.46337342021395       -0.44405658493981
H            5.95151766193246       -0.35324901201039        0.37292798107678
H            5.22851391091811       -1.93256057461043        0.48245190777405
H            1.19680499142876       -2.18633598286188       -0.43716935967415
