28
 energy: -45.866717802174 gnorm: 0.000675855004 xtb: 6.6.1 (8d0f1dd)
N            4.49890836112447        0.42606494015604       -0.38483418164490
C            3.16987778518332        0.18573141075268       -0.20154130120462
C            2.73546458986607       -1.13732103586133       -0.35762606899237
C            1.48298347863832       -1.65631708368181       -0.12591928519126
C            0.25101563147173       -1.03964352820337        0.09963270890339
C           -0.89287711626455       -1.90914778866141        0.23862836883099
N           -0.70681829464300       -3.27559389496997        0.39879081348241
N           -2.14185603332567       -1.52686853164982        0.16373333236405
C           -2.38669073325977       -0.24251052601898       -0.08672569609752
N           -3.58388807675327        0.29836767339672       -0.24585837015030
C           -3.36315914752145        1.61962149047359       -0.42632483473158
C           -2.03354581811797        1.98057086968781       -0.33441693143837
C           -1.32344617976618        0.77378178211845       -0.12006720806666
C           -0.00552885075719        0.38214945087872        0.08237753900355
C            1.01145904096731        1.36482777104976        0.38231161674951
N            0.55042995852244        2.54877877611171        0.84229848537565
C            2.38556712361010        1.25653582310121        0.23219432347568
H            4.83529990681801        1.37191983687369       -0.41248574645582
H            5.07288038160469       -0.28374021157250       -0.80306235136428
H            3.50255490556631       -1.84576391352637       -0.64594388686388
H            1.42538168019104       -2.73303671719746       -0.22344589515425
H           -1.59754341963012       -3.73995369489029        0.51055987591801
H           -0.02515134003584       -3.55846614370939        1.08655092476196
H           -4.19827460436436        2.27257352538785       -0.61469940453436
H           -1.64631225389399        2.96675586380224       -0.51909490192046
H            1.19218899670344        3.25505003438937        1.15577495049114
H           -0.42762952030947        2.63526017607061        1.06611085839001
H            2.93695399177443        2.16888994879223        0.43938880586424
