25
 energy: -43.505938207528 gnorm: 0.000432221826 xtb: 6.6.1 (8d0f1dd)
N           -5.55385739770138        0.43176392509675        0.00408699837127
C           -4.41956781840011        0.25385929703439        0.00266734684997
C           -3.02644706394101        0.03245074292489        0.00263026436459
C           -2.59599424603095       -1.30822314989408        0.01401181720441
C           -1.31400603209326       -1.78326625084153        0.00921958887266
C           -0.07395026144261       -1.09122651754461       -0.00102250828441
C            1.07517089088764       -1.86711743125768       -0.00561965682343
C            2.38425869303753       -1.35407449180890       -0.00625395814944
N            3.44517594985311       -2.18108635943783       -0.01089143385085
C            2.52661560085800        0.03924375355164        0.00094423624257
C            3.60749582045597        0.92677601486520        0.00275717085759
N            3.19385404735396        2.20482556247461        0.00756443683265
C            1.86652174902423        2.19561828764166        0.00842581583967
C            1.35527745457604        0.87635111030727        0.00459464711812
C            0.04990004309291        0.37838307122141       -0.00074152859157
N           -0.91079156498118        1.29858877320879       -0.00929678590317
C           -2.20803013524902        1.17164911864413       -0.01268190121859
H           -3.38835101027687       -2.04798486508620        0.02484495016626
H           -1.21946361114706       -2.86336200557954        0.01677449811531
H            0.96470497352319       -2.94415226074600       -0.00790522686000
H            3.32123227550656       -3.17790856655700       -0.02006514516568
H            4.37581794838921       -1.80489314763934       -0.01399020268378
H            4.65979950679894        0.70373444198128        0.00033997065957
H            1.30219548989458        3.10806904591011        0.01186085583315
H           -2.72622806078853        2.12852653343051       -0.02698670079714
