31
 energy: -49.830009211059 gnorm: 0.000532339169 xtb: 6.6.1 (8d0f1dd)
N           -2.67093622298646        3.71985775226980        0.11980418795875
C           -1.99512299946996        2.79070242251881        0.10220465375236
C           -1.15110951415771        1.66431600932148        0.09325779507663
C            0.22403146627814        1.84142630212340        0.08923157094792
C            1.14293827806947        0.77595665750557        0.06202685933674
C            2.52626535366156        1.14001727440082        0.01077989688890
N            2.86787878258082        2.41736148817149        0.34548209740353
C            3.57511897334064        0.37329692993053       -0.51184355320308
C            3.64780431421264       -0.99117369346890       -0.67673541899586
C            2.75152116657887       -1.93518471255457       -0.21160064835515
C            1.46047884592897       -1.73997906147126        0.27248209125470
N            0.88690445072423       -2.79960714127666        0.89061613066044
C            0.63144913538811       -0.57610771492153        0.08178022475785
C           -0.75979771086573       -0.76262418047833        0.01349482309562
C           -1.57082163024381       -1.90321791356725       -0.13426691775206
C           -2.90826786419871       -1.49714636475542       -0.17906196621473
N           -3.99430427111470       -2.34401397761949       -0.25884344050727
C           -2.97927970901554       -0.10134951784809       -0.04077031749356
C           -1.67998281122818        0.37157434151939        0.04269599445778
H            0.57768300372466        2.85907308325594        0.02148622662562
H            2.25496247239937        2.97758324733164        0.90859925218458
H            3.84031861235056        2.66964466512566        0.33154766337514
H            4.47198568963728        0.93223968492196       -0.75322695611120
H            4.56871050819694       -1.37336605162430       -1.09826325897257
H            3.09858320253101       -2.96187372494024       -0.20009258641357
H            1.43916004732584       -3.61311077041516        1.09619777333190
H           -0.00595437070607       -2.68189158760997        1.33887141372992
H           -1.25523250616801       -2.91790761034589       -0.29793402513926
H           -4.85170375814273       -1.91034218598015       -0.56442103803331
H           -3.81697105939864       -3.24053651951575       -0.68505262926934
H           -3.87455691993330        0.49220021759740       -0.03654745757649
