30
 energy: -49.314228457742 gnorm: 0.000383145415 xtb: 6.6.1 (8d0f1dd)
N            4.78888949864145       -1.13790107193097       -0.31686861747689
C            3.56033550218424       -0.50731559230147       -0.24932354032334
C            3.36623647854507        0.88266928966114       -0.25429886534075
C            2.00530734930876        1.11308005689450       -0.13294604202034
N            1.34867075503358        2.26953744543857       -0.16401666605218
C            0.04612493516525        2.22348248700693       -0.05320049556038
C           -0.73368465579636        1.05622232835368        0.12099310660908
C           -2.14950078221917        1.19877587459392        0.23127630908511
N           -2.65913428877344        2.34882745911208        0.72861084680498
N           -3.07163728356834        0.36682350865020       -0.22174359554880
C           -2.98889151383215       -0.93701779759299       -0.38243155459653
N           -4.07420083213181       -1.50162835702414       -0.98444520338392
C           -2.02166034293813       -1.78704048190438        0.18081164207769
C           -0.73225408712227       -1.44110311985115        0.53844918298431
N            0.01789154525362       -2.36869070724323        1.17314040464822
C           -0.05679719689052       -0.20765541644984        0.18809154505366
C            1.32919881758172       -0.18892969372890        0.01326249266753
C            2.33516043098787       -1.16112407181733       -0.07574978115839
H            4.76591078302644       -2.08946597370511       -0.65114657810745
H            5.52576283387775       -0.58466953732489       -0.72655182014061
H            4.12969606964900        1.62812011884136       -0.36789907067224
H           -0.44610392626089        3.18327827589095       -0.16760158135091
H           -2.05691669079791        3.11023204611478        0.98175791191395
H           -3.64917131124412        2.49987682342053        0.64655555897977
H           -4.01494476776534       -2.44806860430654       -1.31446790538387
H           -4.70537222300510       -0.87704752251828       -1.45568399198586
H           -2.31006073274108       -2.82236877051235        0.31879928316421
H            0.94207305853036       -2.11843579889879        1.48085371077594
H           -0.38912210814561       -3.23933054485748        1.46349003761375
H            2.21965044084760       -2.23087794701050       -0.11772567357710
