27
 energy: -46.160465666586 gnorm: 0.000944069418 xtb: 6.6.1 (8d0f1dd)
N            4.76480239592014        1.33137711355330       -0.03318378236907
C            3.56714243367391        0.67181025856387       -0.01223466646501
C            3.38373393517167       -0.67814434170096        0.28850432127987
C            2.01328608418452       -0.92961655582650        0.26240504880530
N            1.36535097930742       -2.05536391436776        0.49896557315204
C            0.05002081783975       -2.04250824863055        0.35334801964734
C           -0.73257408781663       -0.93213009417815        0.02649048830975
C           -2.13197519707941       -1.10054205215907       -0.25907984381189
N           -2.55431597252162       -2.30133599260906       -0.69987754801213
N           -3.09999523555749       -0.22624778630962       -0.06814269866926
C           -2.96442254343173        1.07506419066563        0.14021705352791
N           -4.01768727328769        1.68942451602532        0.71605233243057
N           -1.99602928596325        1.89164850071733       -0.27758400663077
C           -0.75086737199939        1.53861359323656       -0.47792505057731
C           -0.07820121217608        0.34585575487667       -0.16321652503113
C            1.32886288665571        0.33610020468429       -0.08894733775878
C            2.30990515028420        1.29360903057336       -0.23574699880507
H            5.59639702340467        0.76924599227608       -0.10530547094567
H            4.79364252349706        2.22045211589147       -0.50385733781219
H            4.15450555472464       -1.39263949475984        0.50274359835081
H           -0.42643586706056       -2.99493219664050        0.56082516770890
H           -3.53837548973299       -2.43607040817854       -0.85053055073888
H           -1.90907595789439       -3.05541947739265       -0.85063044505828
H           -4.84361333818912        1.15871325662884        0.92340262685388
H           -4.03070953007715        2.69270491422238        0.74574185819341
H           -0.13722069195937        2.35192867659920       -0.85333702008350
H            2.18302679208279        2.33495777923900       -0.47155547809084
