29
 energy: -45.593526785424 gnorm: 0.000712904121 xtb: 6.6.1 (8d0f1dd)
N           -4.18910080406229       -1.71372078549205        0.05750846172553
C           -3.06807286954166       -0.91545275877130        0.00492482416428
C           -3.29363209634944        0.46038449626093       -0.00047502196805
C           -2.35358676759257        1.48900688296949        0.00230990604762
N           -2.85145965805368        2.76946599670084       -0.05640953542732
C           -0.96284129051862        1.37122829441021       -0.00519072486345
C           -0.10831473513680        0.26840593396590       -0.00262878972159
C           -0.51650628182140       -1.12606900328682        0.03114810420224
C            0.47694668287640       -2.12972931592001        0.06002219658458
C            1.82912544601172       -1.87116352332224        0.04920577468304
C            2.25079242030035       -0.55538305562698        0.00462206277726
C            3.50938877133760        0.09202095411529       -0.02985699192208
N            4.74461858753700       -0.48692582670647        0.03804344586212
N            3.36855345528266        1.42827269070210       -0.07554565506556
C            2.05536835093239        1.68289038260313       -0.06951891455699
C            1.28109303150885        0.51201882097864       -0.02259833585374
C           -1.84159725346316       -1.57812537997265        0.02808159783563
H           -4.08073447816843       -2.68944546456140       -0.16002948902806
H           -5.07115236648558       -1.30475687902424       -0.19927285410641
H           -4.33300317984941        0.76868973160280       -0.00605324407816
H           -3.81671452349072        2.91621682164963        0.18351502838348
H           -2.22476246846958        3.52687838640793        0.15489604389421
H           -0.44533427428893        2.32298137807215       -0.01666313892481
H            0.14608675933517       -3.15869642387687        0.09268169087820
H            2.53745263837814       -2.68889011631294        0.07628945842647
H            5.51034845292508        0.12169673824635       -0.20188759576681
H            4.82152859765711       -1.44088762260380       -0.27333893011412
H            1.72797621809139        2.70674395400922       -0.10858083503868
H           -1.93571206578157       -2.65969614051684        0.04651915427116
