33
 energy: -62.904161599211 gnorm: 0.000983441561 xtb: 6.6.1 (8d0f1dd)
N            5.88739756407040        0.71006493382868       -0.20995485484484
C            4.82647039849836        0.28218181736405       -0.09613888832452
C            3.51808110857057       -0.22321118956714        0.03768450558119
C            3.39274350132489       -1.46869886674779        0.66052974012305
N            2.40157122208636       -2.30471788820972        0.59677821139775
C            1.18884399076774       -2.11813266864084        0.08018423890202
N            0.53823307972704       -3.22434217372205       -0.25185656195549
C            0.45928480409134       -0.86840796175259        0.00008807309786
C            1.07168066282257        0.43609091768624       -0.05599857051309
C            2.45715334147897        0.61462989969688       -0.39352122819950
N            2.80613948027765        1.69524732818900       -1.11107862448507
C            0.24776492856302        1.58737104034738        0.08511065441590
N            0.80664718926864        2.86554320654953        0.15915541640526
C           -1.14756169859267        1.48629244261169        0.15205961013034
C           -1.92036512260754        2.64613348215772        0.35061714308537
N           -2.50315724605456        3.61905924740769        0.53411367346202
C           -1.75887251187242        0.23339181514673        0.02819447278477
C           -3.08036900323987       -0.22293783154540       -0.01148417346763
C           -4.27923095177024        0.47970354180144        0.03244542675917
N           -5.30802194730746        0.99401938112694        0.06966666114989
C           -2.97630720480727       -1.64445698332376       -0.10893602451628
N           -4.01570758662759       -2.49447810720278       -0.22609804261590
N           -1.70649793935402       -2.05973100568035       -0.13066831027768
C           -0.93093622722012       -0.94331179366810       -0.04542912755072
H            4.26503035754068       -1.85376436581166        1.18075051640686
H           -0.49406195429838       -3.12955319275983       -0.35667947173270
H            0.99628038513146       -4.10512696519297       -0.07723340341324
H            2.10980789922232        2.37383663645491       -1.37738587554223
H            3.77644159787246        1.86438640205978       -1.32233178997431
H            1.65566645958026        2.93966570335957        0.70202763793196
H            0.12948099051654        3.57288714595715        0.41585164845974
H           -4.94537342078783       -2.14089330465597       -0.08363143948985
H           -3.85088507507481       -3.48146074866833       -0.14518073839020
