30
 energy: -54.140412300966 gnorm: 0.000362921580 xtb: 6.6.1 (8d0f1dd)
N           -0.26593861518068       -4.15397121526346       -0.49654812633428
C            0.02154096508768       -3.04815156350194       -0.36263487756038
C            0.46138618067607       -1.72218478434887       -0.21432713438907
C            1.85475043499022       -1.47344753678171       -0.23717459421449
N            2.72347592368944       -2.47846598327948       -0.46318881935546
C            2.27295762797076       -0.16296217121750        0.01030985113824
C            3.52801975569404        0.45328581283805        0.12391681592287
N            3.42127187770037        1.75706942804070        0.37646017499586
C            2.10551877274874        2.04594026325276        0.41473624867401
N            1.69382388055584        3.32754752542999        0.65699274113031
C            1.31211603846799        0.89555046093228        0.17765765381111
C           -0.06949933482468        0.68721440437288        0.05148451798665
C           -0.94302070785943        1.74106544937849       -0.19235355540047
C           -2.33478993070230        1.69737586374927       -0.41291345199321
N           -2.91965891379461        2.82905251495984       -0.88776180135923
N           -3.19774083351610        0.73666542469576       -0.12164490873235
C           -2.85834363137585       -0.46472308563637        0.34336743875330
N           -3.86523405032959       -1.14841853712018        0.93233816498284
N           -1.73266259717047       -1.14320359169707        0.22880845409281
C           -0.50101577924583       -0.71576250160305        0.00928515392673
H            2.38383522988528       -3.42000454392723       -0.56422244362004
H            3.71056805528700       -2.31256556350364       -0.39283407605993
H            4.50149057571842        0.00328499474839        0.04103168891113
H            2.44115578491823        3.92525789898408        0.97901944172829
H            0.82222621830746        3.43197978926661        1.15414650694355
H           -0.48218511219517        2.70426437208373       -0.37043376984026
H           -3.89238469277710        2.77260487057310       -1.13349027065279
H           -2.35959545758193        3.55821246934739       -1.29055998610178
H           -3.72563563587779       -2.12877964125873        1.10397801053185
H           -4.79642941587063       -0.77871973772148        0.86357670957803
