24
 energy: -43.784661225857 gnorm: 0.000879770807 xtb: 6.6.1 (8d0f1dd)
N           -1.39243856599614        3.33374086034375       -0.82792087467863
C           -1.44151460777769        2.22188138634178       -0.54984535001300
C           -1.59410272313283        0.84911219275420       -0.23314087771259
C           -2.90079179598865        0.37588568842688       -0.43778101738403
C           -3.44240136222211       -0.82851188065235       -0.04645116990198
C           -2.72084714076105       -1.83837160909081        0.60789876379595
N           -1.44830608186938       -2.06115492881208        0.55348342521907
C           -0.42494779435924       -1.35149871301610        0.12021409333191
N            0.66143663797222       -2.04118148623147       -0.18032403029444
C            1.85641442946663       -1.45273822773461       -0.24158332012938
N            2.88181173532996       -2.21614537774943       -0.63927728297571
C            2.01214306567484       -0.10466684486501        0.14080904537749
C            3.07795788822293        0.76780891649700        0.33409755334792
N            2.64817821116739        2.01229025064753        0.62064366347085
C            1.32540123199681        2.00110634721660        0.58846646285823
C            0.82437173443162        0.70649665758394        0.29960185068405
C           -0.43256696703326        0.13259638754606        0.11646529788202
H           -3.58304519019197        1.10177255792446       -0.86635683279680
H           -4.50580333698317       -0.97237988453861       -0.17454091499204
H           -3.27671044430826       -2.57792819932576        1.17695168265271
H            2.70530537207394       -3.18308760097587       -0.85338778687838
H            3.82221401658498       -1.86538735550808       -0.61942009654624
H            4.13209410452728        0.56124567855846        0.29146596120194
H            0.76501396777514        2.89170623685958        0.79975291768105
