28
 energy: -46.688156414053 gnorm: 0.000529634042 xtb: 6.6.1 (8d0f1dd)
N           -5.19147642308761        0.39030627805884        0.09983489935317
C           -4.07596659559090        0.10138291053010        0.07949007208983
C           -2.71257362441187       -0.22052692374127        0.04768410329849
C           -2.38087665988245       -1.58550962274248        0.05646588905617
C           -1.14833712590705       -2.17439412098267        0.01091569050753
C            0.14596225403313       -1.59180989375262       -0.02338881258056
C            1.23318588221574       -2.46899587277808       -0.05647665887095
C            2.56147574730534       -2.06315543978467       -0.05222188368901
C            2.83519782381885       -0.71438893495124       -0.00964810958125
C            4.04023866499093        0.04057541442065        0.02688066531146
C            3.72792797004240        1.38035360609451        0.07349578282472
C            2.31922126433320        1.52267890890315        0.06180536459374
N            1.58109659133683        2.63796970574973        0.08316631877377
C            1.74567028073096        0.21764168780002        0.01003933294903
C            0.40282520130698       -0.15686896253092       -0.00764942542048
N           -0.47766880194633        0.86036500627284       -0.02321298112986
C           -1.79315977845520        0.86703058629262       -0.01715380712329
N           -2.33190886935852        2.11484359165287       -0.04934027453969
H           -3.23387483439934       -2.25375276393288        0.09393765803184
H           -1.14914298907393       -3.25798743234731        0.01344550423544
H            1.01879331416987       -3.52872639417951       -0.07885482605517
H            3.35320081172804       -2.79792301226775       -0.07376979336957
H            5.03001162421875       -0.37852352444149        0.02082366628278
H            4.42718877198141        2.19588606173605        0.11261103222366
H            1.99070203313201        3.54768013932369        0.19980610061179
H            0.57989563399364        2.46148999139018        0.11013292562900
H           -1.72924601135940        2.90411082677453       -0.19648030686053
H           -3.32706779626548        2.23451350303308       -0.12367891445206
