28
 energy: -51.493207191625 gnorm: 0.000731537667 xtb: 6.6.1 (8d0f1dd)
N            1.23410512504923        4.45144345956727       -0.55243218150785
C            0.89213988701468        3.36578568126967       -0.40844396200288
C            0.41447346556419        2.05244304213243       -0.22898015069868
C           -0.96752731551857        1.82684292586077       -0.13504951629471
C           -1.51182484518641        0.56119976076658       -0.00201374510943
C           -2.93680953730966        0.43715040355779        0.23874510235426
N           -3.54938489170757        1.41525817689305        0.92426677918129
N           -3.73234330386312       -0.49024771033967       -0.23669294947699
C           -3.47684906114566       -1.72145662855457       -0.59710686710172
C           -2.34086272721702       -2.46605610338766       -0.29654297156214
C           -1.10353418676903       -1.94436105777168        0.03582842700219
C           -0.66461380689842       -0.61103715281401        0.03074068377924
C            0.72832168604861       -0.36854946485236        0.05563836285980
C            1.85673043095685       -1.19746529484265        0.12099923658577
C            1.97635968368812       -2.57275684610823        0.24922911768357
N            2.13701282367154       -3.71051767000893        0.34874677690183
C            2.98564637722335       -0.30616563986433        0.01905820553046
N            4.27386964501180       -0.68032734632823        0.08320076799466
N            2.62097690273675        0.96509772847716       -0.11210941861493
C            1.27610735635724        0.97060731484337       -0.09890384003211
H           -1.62022512316539        2.68603884718265       -0.20468574466591
H           -4.54298804754017        1.35222385535227        1.06902311231986
H           -3.03543714847133        2.18776484455071        1.30877460039569
H           -4.30542747132574       -2.21074087385275       -1.09826377271242
H           -2.41164577703299       -3.53928451246152       -0.40355519949834
H           -0.31894710489975       -2.67457808917044        0.19192965589925
H            4.97959779786342        0.01709872856799       -0.07120084327239
H            4.51791706256470       -1.65446303026504        0.07082488396227
