28
 energy: -46.676912293880 gnorm: 0.000572483743 xtb: 6.6.1 (8d0f1dd)
N            3.58906247173361        2.31949403998015       -0.10949798047754
C            2.82070948908838        1.46282790022058       -0.04671721904000
C            1.96395143469636        0.35004237922376        0.03252281102410
C            2.64115833665485       -0.89486287103228       -0.12740976128572
N            3.90373924411512       -0.87554781417157       -0.61824667808820
N            2.23179053193804       -2.10700782480000        0.21161462680250
C            1.00891000969945       -2.45499737040224        0.56060936743191
C           -0.19132636202390       -1.78938337585260        0.45464631216585
C           -0.45096492665231       -0.43210652996707        0.15341000431015
C            0.57275031694088        0.60636338707997        0.17371137775939
C            0.17019299123171        1.94434901541854        0.28166915033101
C           -1.15521729462992        2.33743643345638        0.26394783512241
C           -2.13726774588637        1.38400078921510        0.08112434196749
C           -3.54195295861131        1.47141387617152       -0.02657736109870
C           -4.04652208622523        0.20086531733643       -0.22906772721930
C           -2.98673258313675       -0.72393852195691       -0.24178100766247
N           -3.13231730609145       -2.06198594251230       -0.46432201294837
C           -1.77021724067692       -0.00660399630915       -0.01283010190997
H            4.39241174703601       -0.00750503762990       -0.75331113069273
H            4.41895008218874       -1.73812641114470       -0.58748747622186
H            0.96689574087848       -3.47864468906389        0.92437060043852
H           -1.06198867433569       -2.37006590766902        0.72630621456288
H            0.93712280850263        2.70003031290132        0.36597148738188
H           -1.40986408442763        3.38310520811756        0.35686322193675
H           -4.11386462044233        2.37925297657573        0.03110185895347
H           -5.08042352337336       -0.05607694967278       -0.37490853908168
H           -4.03118963725917       -2.35161808606631       -0.81851441061191
H           -2.34005260003256       -2.55921127794597       -0.84096395884952
