30
 energy: -54.934824075443 gnorm: 0.000836086367 xtb: 6.6.1 (8d0f1dd)
N            4.08188627763071        2.67612870693937       -0.65407886105046
C            3.21231267048525        1.95319901804770       -0.45094667376961
C            2.14258920469637        1.06547661512276       -0.19699236480700
C            0.89533349777149        1.65774460575978       -0.13391169134813
C           -0.38994122483073        1.14772047571486        0.06810583127641
C           -1.42673180332466        2.13312605816488        0.24169598606106
N           -1.08783591111736        3.45718312746430        0.44936294023521
C           -2.77037723473708        1.81378156461028        0.15369881945769
C           -3.12884998383347        0.49327463264323       -0.04822339846596
N           -4.33259850381597       -0.09290332100879       -0.15172941625776
C           -4.04752178796471       -1.38822755252510       -0.25739804169852
N           -2.75594090671507       -1.72177291523238       -0.23033997053778
C           -2.10743379989231       -0.53362677712210       -0.10066556507246
C           -0.74335099300522       -0.24984749496503       -0.01773872294887
C            0.16497054337098       -1.37018270227544       -0.01333218935552
N           -0.40025183064210       -2.56741988841096       -0.10957753641019
C            1.58411100854240       -1.35192612670720        0.13489593763789
C            2.17606854579628       -2.61776270513396        0.34014285063131
N            2.67860077833826       -3.63663265938724        0.52195057913499
C            2.49909727762449       -0.29478025406763        0.03182638370725
N            3.81563944112437       -0.56956338401621        0.13380254872148
H            0.93311733930117        2.72915085185828       -0.29580877278537
H           -0.27458081118599        3.66250154093485        1.00517274349031
H           -1.87213123256643        4.05986564109155        0.64275313078507
H           -3.52656029077986        2.57692284796980        0.25854230514019
H           -4.81584195739626       -2.13309855385547       -0.35908749879303
H           -1.44654907089591       -2.59668350042490       -0.18695766284765
H            0.16283802370400       -3.40220172164756       -0.07575750098437
H            4.13317227004514       -1.51565569888263        0.26243339148391
H            4.49500514827208        0.16413296844079        0.02108935816990
