29
 energy: -55.993717849235 gnorm: 0.000678055010 xtb: 6.6.1 (8d0f1dd)
N            4.89268482379468       -1.56112747760257        0.15513968521714
C            4.01108328384378       -0.83416097825335        0.05286399412004
C            2.93099003207537        0.06936035056779       -0.05606243789397
C            3.17298501634301        1.29924053893992       -0.69372556085272
N            2.53368016569122        2.40276084453744       -0.45817243919173
C            1.35908629298260        2.61262881390975        0.08126890010209
C            0.26520764328357        1.74289802620200        0.07570030854022
C           -1.07825812337971        2.28260560700207        0.06211464395649
N           -1.29699174147031        3.62790359222520        0.08049663837087
N           -2.15659180703137        1.53919067054841        0.05375055776868
C           -2.02341889110643        0.22027622141733       -0.02359760781454
C           -3.02589291009665       -0.75822464605192       -0.09185174941299
C           -4.40497539507224       -0.53585485615875       -0.08563916031776
N           -5.54172469955143       -0.37080074667953       -0.07569258846412
C           -2.39415085275101       -2.01571315211296       -0.20539259223125
C           -1.01492724981625       -1.85788845110742       -0.15145028911819
C           -0.08386691392736       -2.87936448752698       -0.32908221659926
N            0.70747869946985       -3.70661539550087       -0.45511951220863
C           -0.73297216179705       -0.45228926054429       -0.02480051533010
C            0.41555491789885        0.30775738504166        0.10690079362358
C            1.68309638670288       -0.32515782890736        0.46422138877718
N            1.63227964354724       -1.38772132970656        1.26612618302205
H            4.05197986380295        1.39633706201134       -1.32079639445202
H            1.21989679027476        3.63393019027826        0.41860411749927
H           -2.26225871739143        3.88365272650603       -0.05713494566878
H           -0.60784502319712        4.26514389738815       -0.27571015986325
H           -2.90617085934107       -2.95380987433724       -0.32152039331004
H            2.45801838615617       -1.94905575329953        1.41605410247083
H            0.74589911186238       -1.77154681318595        1.55419977316097
