25
 energy: -47.513337912152 gnorm: 0.000824722961 xtb: 6.6.1 (8d0f1dd)
N           -5.16558127667929       -0.39162661694382       -0.50838912752648
C           -4.05781081841950       -0.11252848448381       -0.37424603408919
C           -2.69895484041104        0.18215254860763       -0.18618193418759
C           -2.20272473768721        1.42054980953974       -0.59010612019704
N           -1.07043835971500        1.99225784757984       -0.28062632065803
C            0.05673517699036        1.47655037598681        0.16865587268356
N            0.99300770804012        2.33278667154504        0.56631888753005
C            2.26501625032586        1.98877880377921        0.56289773803126
C            2.67982135874795        0.75652379873001        0.07961174263059
C            3.91109990220457        0.08554010247373       -0.09077763347182
N            3.75317816951041       -1.20139518381905       -0.37666163333330
C            2.42198838565646       -1.44532878564857       -0.39803985546312
N            1.91227360236688       -2.65680330182911       -0.63254571674565
C            1.67763751979587       -0.25752569140586       -0.14378016015756
C            0.33608357467898        0.02045173899563        0.05865449699311
N           -0.56193462211165       -0.93850817473918        0.25865171474949
C           -1.86703606392949       -0.84913509620181        0.37536436690568
N           -2.47571349794925       -1.90838386450565        0.94474097241876
H           -2.86809146131304        2.05690921588282       -1.16801447398737
H            2.95925815922829        2.72993115371598        0.93679056299325
H            4.89771439892004        0.50232150327364       -0.00288676540773
H            0.91803013989656       -2.78187837257965       -0.54671215930282
H            2.53020121230490       -3.44318005461473       -0.73159124379890
H           -1.91759803594059       -2.66913897371392        1.28966413262583
H           -3.47885853371205       -1.96013424992496        0.98595063796288
