29
 energy: -45.603528390549 gnorm: 0.000502125003 xtb: 6.6.1 (8d0f1dd)
N           -4.49302823784896       -0.56398713291147        0.11145452931677
C           -3.15517897893997       -0.29816565877261        0.00981791010813
C           -2.79667725267663        1.04738704579517       -0.21479345722220
C           -1.55298948457063        1.60727476529234       -0.19729938914131
C           -0.26060768063588        1.07408800839760       -0.00458722055524
C            0.78829854320527        2.04899974173164        0.08526800374934
N            0.45310502655690        3.41319283760502        0.16644745412965
C            2.11852513497374        1.70009684440360        0.03835988901815
C            2.47318095809021        0.35865842590307       -0.05218536545840
C            3.68360958444129       -0.33942465592982       -0.09785407276488
C            3.33742312366880       -1.68355284000502       -0.09288114343794
N            2.01395013967635       -1.88059318048867       -0.04490834265836
C            1.43976751826553       -0.64774175863172       -0.02525928808233
C            0.07608954793074       -0.32346699290642        0.01462592247023
C           -0.87340099265177       -1.41351037751991        0.08775476113911
N           -0.34060193260248       -2.63545269978948        0.13031968651114
C           -2.27462763304081       -1.35296981339477        0.15080082899983
H           -4.80396901230440       -1.51928687700585        0.08208892100362
H           -5.14835314593488        0.13489317169424       -0.19209056420263
H           -3.62631326076111        1.71937623434000       -0.40073416700924
H           -1.55004515945162        2.67181262640184       -0.39442061663038
H           -0.23490905020862        3.63340245438662        0.87305514226277
H            1.27489985244430        3.99209234845800        0.27621867962931
H            2.88184742012768        2.46644573746622        0.08572506149688
H            4.67411180456139        0.07196285643473       -0.12786638963711
H            4.00125456520379       -2.53124024053363       -0.12008637134718
H           -0.94011933195814       -3.44013435322047        0.19799488133612
H            0.71243030591135       -2.68987410954553        0.06959790335210
H           -2.74771454597148       -2.32279728375459        0.28121327452413
