33
 energy: -58.097816835860 gnorm: 0.000772423891 xtb: 6.6.1 (8d0f1dd)
N           -3.70759040505649        3.24263258318849        0.01671293482972
C           -2.79212959361413        2.54624853779199        0.00405627614222
C           -1.66021443645712        1.71462482033890        0.01222183110150
C           -0.39310677953236        2.26509518777934        0.19368725105983
N           -0.26933363153042        3.63937312505685        0.27887993922273
C            0.77344254680581        1.42862238076230        0.16958399920936
C            2.01786181531810        2.04902614101478       -0.01457578775652
C            3.24722626975874        1.51095487775080       -0.32440503330966
C            3.57314892102248        0.14301402991177       -0.36468233355469
N            4.72471986840056       -0.24631761501520       -0.95475277759188
N            2.92212205576759       -0.82115259434242        0.26860885175342
C            1.68947081633931       -0.84596643684707        0.68885983475656
N            1.40672764521477       -1.75552129472786        1.63294601774208
C            0.58442998975806        0.00011760975607        0.24519987835647
C           -0.66751680495814       -0.53928477274594        0.03410826353497
C           -1.14525652512295       -1.88315420405255       -0.10012262197690
C           -0.40778695238163       -3.05484305434407       -0.10569138530157
N            0.18564344977804       -4.04624324259574       -0.10286882446294
C           -2.52981356998088       -1.81498909959123       -0.35652323210326
N           -3.35233384304810       -2.89234804103713       -0.49818004085460
C           -2.93765583763452       -0.46459909717898       -0.36063142551916
C           -1.82113899275772        0.32037210428280       -0.14672398295609
H            0.44671615081725        4.00386476773740        0.88536252400998
H           -1.14812686594374        4.13227607309547        0.34279941151516
H            1.98791071235863        3.12929660306435       -0.06912751826998
H            4.03047589483741        2.19825500247135       -0.61524577412243
H            4.92744032581453       -1.22892218430825       -1.00413896531436
H            5.27579350844347        0.40130906056846       -1.48641120660589
H            2.10265400009725       -2.45155358010903        1.84542567173515
H            0.44703013827796       -1.96706948180039        1.84974137220274
H           -4.25345975898241       -2.73762828823699       -0.91743787571711
H           -2.91940211425130       -3.78280011636911       -0.68203767545147
H           -3.94314369335967       -0.11815182346915       -0.50974242020221
