27
 energy: -46.961447026342 gnorm: 0.000205063068 xtb: 6.6.1 (8d0f1dd)
N           -1.80068997496994        3.73164315226331       -0.00501085721140
C           -1.44001087759505        2.63874424912253       -0.00340768081807
C           -1.10549280247996        1.27295276838324       -0.00111081536870
C           -2.20074680710345        0.36743536985043       -0.00009714538753
N           -3.46515026424826        0.82146283469042       -0.00095375483131
C           -1.89982695141102       -0.99574483592558        0.00196634208197
C           -2.67365841432449       -2.16553390091093        0.00342506204491
N           -1.90392473074211       -3.25544636558780        0.00516064187711
C           -0.63215719106190       -2.84545161570494        0.00488290533914
C           -0.53248293141373       -1.44503851041186        0.00292900816786
C            0.56449726439943       -0.55503581187111        0.00190777006082
C            1.84557494797615       -1.08647562667504        0.00286933867008
C            3.11422015346674       -0.47414146690803        0.00220716157908
N            4.19323352345821       -1.29051798864380        0.00353631088846
N            3.44367758656622        0.81508159208259        0.00059716239936
C            2.59864094986515        1.82297856990048       -0.00083073458041
C            1.21699962274997        1.88724746485963       -0.00125352367442
C            0.24588981865315        0.86936731717637       -0.00015067164961
H           -4.22944707512700        0.17069675364183       -0.00073558296746
H           -3.65410558459633        1.80993781084353       -0.00292246733296
H           -3.74508152538994       -2.25942701831361        0.00330761505223
H            0.15625855223498       -3.57623991617322        0.00611095001292
H            1.88132791972309       -2.16887935118026        0.00437543143305
H            5.10338358012188       -0.86578517989079        0.00268751281576
H            4.10386601503781       -2.28949554417821        0.00417423405097
H            3.11320776432315        2.78035318811234       -0.00190396144588
H            0.81568893148730        2.89415171014846       -0.00267458090597
