25
 energy: -43.514753662887 gnorm: 0.000670640346 xtb: 6.6.1 (8d0f1dd)
N            1.67763680299867       -3.53168265921731       -0.06055267919679
C            1.89568590786776       -2.40094841815318       -0.02314421822631
C            2.17433488305308       -1.03737072473929        0.02475562466551
C            3.47148378333712       -0.48519514605614        0.15076907832565
C            3.39785116776240        0.89410985567104        0.20274395972835
C            2.04424479839790        1.25693749626475        0.12323444463342
N            1.50057998633947        2.46342645553922        0.12652928802455
C            0.19681820353419        2.54277987828765        0.00763369279817
C           -0.69611038139748        1.45284462050496       -0.10057538570032
C           -2.06970890275696        1.75989684065898       -0.22162663633550
C           -3.16708373356496        0.94723115181517       -0.14402652668408
C           -3.15679765731817       -0.45945159277158        0.02435216645253
N           -4.28852161916360       -1.07837146284022        0.41281674757321
N           -2.16005490364672       -1.28445656054429       -0.27772149571364
C           -0.89780244865455       -1.03999316109775       -0.42683560959743
C           -0.13323619085307        0.12271839018650       -0.13372564444242
C            1.25371764032720        0.03180376078199       -0.00444874876730
H            4.37108055542388       -1.07315978963835        0.19617603357375
H            4.22118392171655        1.57592056576402        0.28980561546359
H           -0.20641010537157        3.54811847682824        0.01474070479913
H           -2.27897863517796        2.81950841842036       -0.31824388834386
H           -4.14254349249975        1.41601095800278       -0.17042342645661
H           -4.27782569150793       -2.08028414785145        0.49668881911407
H           -5.12727196849281       -0.56547363349890        0.61506702504329
H           -0.33363782515096       -1.89987742171738       -0.77494891183107
