29
 energy: -50.390561240169 gnorm: 0.000519586736 xtb: 6.6.1 (8d0f1dd)
N           -3.15671497554860        3.89638294694781        0.32052269448168
C           -2.73467625216780        2.83406849926522        0.21199149905030
C           -2.24182326833595        1.51657820763175        0.08325987942621
C           -3.22010616584660        0.49877175945505       -0.04942775317466
C           -3.02419423689789       -0.82836548535811       -0.23872115314514
C           -1.83222427349372       -1.62562198729835       -0.25153972021539
N           -2.07281247747247       -2.91979065622419       -0.55407262578278
C           -0.51540180194235       -1.21560271477613        0.03268034206816
C            0.52803763870828       -2.18428386682573        0.23294389969706
N            0.22471142608718       -3.53999271707116        0.47253167459264
N            1.81813115367732       -1.95192349032601        0.20360395442776
C            2.23362267073817       -0.69679957783033        0.01962505314518
C            3.48924745570402       -0.13039892639085       -0.07084060593431
C            3.25006209936335        1.26363625548017       -0.13503428833249
N            4.19234469565905        2.23589445270255       -0.17768371955263
N            1.94353939864423        1.58675410796744       -0.09455300639891
C            1.28860980271374        0.41559245817390       -0.01602956614142
C           -0.08710542090486        0.18758394801599        0.01945876770303
C           -0.87537862483845        1.34906413108733        0.04759785373593
H           -4.24763896510697        0.84340073142999       -0.03909535521751
H           -3.92492009605310       -1.41558985692373       -0.38280999439595
H           -1.29033030031474       -3.55252623420997       -0.65868625061441
H           -2.98704514319716       -3.19490970012773       -0.86583751612914
H            1.09570514016871       -4.03499087187062        0.63212865949071
H           -0.41554550599080       -3.67912899595880        1.24524030347449
H            4.44385008053946       -0.61592778437758       -0.07669015047974
H            3.87095187720541        3.16849272605830       -0.37255027426195
H            5.12603691459197        1.99129664881142       -0.45615553062959
H           -0.27236886849035        2.25043978744318        0.07281504691304
