25
 energy: -44.307938119576 gnorm: 0.000273626094 xtb: 6.6.1 (8d0f1dd)
N            3.99451639667800       -2.19221871534186        0.00220361010901
C            3.26564850465646       -1.30873884089444        0.00098948703462
C            2.39314215137146       -0.18774395429397        0.00004837286418
C            3.03119127697225        1.06545512438022       -0.00419634650689
N            2.51063932487165        2.26993254141550       -0.00212276384638
C            1.24080867565225        2.59571640027336        0.00149325088658
C            0.03155937704792        1.86616106019185        0.00023994497516
C           -1.14128201655522        2.63660794175667        0.00028687678130
C           -2.40636958511660        2.08404959130011       -0.00010257438098
C           -2.54550808626846        0.70644110050355       -0.00026667424497
C           -3.67867069718027       -0.12182188644541       -0.00036825875866
C           -3.25097827338534       -1.43813482474416       -0.00039267680841
C           -1.84161746553283       -1.47703003856958       -0.00010914067589
C           -1.11838575015224       -2.67059643457508       -0.00037448402544
N           -0.55769830953731       -3.67573182973829       -0.00030442889013
C           -1.36322981487218       -0.13995370596457        0.00003690230799
C           -0.07256031049403        0.40552003041290        0.00021842723771
C            1.03053589613401       -0.46300377362247        0.00187268845060
H            4.11726430064189        1.06097619049660       -0.00876088859219
H            1.11078544353963        3.67635298068079        0.00488867960183
H           -1.03947720734231        3.71193289470597        0.00064099663195
H           -3.27887426362132        2.72097382519562       -0.00002227861913
H           -4.69867951267033        0.21330949119751       -0.00045645466261
H           -3.87816278705755       -2.31116249030042       -0.00058963421157
H            0.78300918181899       -1.51816368391988        0.00381737694268
