30
 energy: -55.736595998815 gnorm: 0.000986298189 xtb: 6.6.1 (8d0f1dd)
N           -5.47048466089825       -1.20361002080761       -0.17183136267199
C           -4.38964900173724       -0.81327296310543       -0.13037061938392
C           -3.07145170038900       -0.32422424089334       -0.06069742156924
C           -2.91986124781265        1.02787608729261        0.36476869269376
N           -3.89968305739846        1.61820708964326        1.06820326337519
N           -1.93365445914819        1.81404493748540       -0.02762528160700
C           -0.72850601771029        1.52021875104854       -0.39626334538866
C           -0.00337592730215        0.31939319374666       -0.18543494109408
C           -0.62071453780839       -0.97254597166828       -0.11130093183640
C            0.17852502664810       -2.10114617805863        0.12195217352503
C            1.55213852315825       -2.02882589409485        0.27176508222365
C            2.18087621539592       -0.80844607928280        0.12866699658269
C            3.54965625236865       -0.43066984688304        0.18567716740632
C            4.61715986238492       -1.30687376196274        0.38724720955631
N            5.48237897039463       -2.04622613801356        0.55133517086301
C            3.61607242750971        0.94797683120468        0.00784911343388
C            2.31511959920564        1.46279102754107       -0.16342538760545
C            2.04508475639923        2.81996248356918       -0.34065169617068
N            1.84951839426171        3.94568643785515       -0.48175131793557
C            1.40179661342031        0.38538345547929       -0.10565050382154
C           -2.02449580829516       -1.19808080807191       -0.39014670324774
N           -2.36383444638218       -2.38877357751384       -0.91667958368857
H           -4.75837628185577        1.13512421252183        1.27097545599528
H           -3.82782605591705        2.60593144814416        1.24706692511695
H           -0.18263804551023        2.36249951519954       -0.80736243657496
H           -0.29265261678275       -3.06510430935335        0.24831078903310
H            2.12566630609628       -2.91869720731742        0.48582773462525
H            4.51538784417962        1.53705416669871        0.00008342839112
H           -3.33283505214719       -2.61565341700917       -1.06996353081959
H           -1.65966337662628       -3.05094396909343       -1.18842724200251
