27
 energy: -46.950042692149 gnorm: 0.000518145107 xtb: 6.6.1 (8d0f1dd)
N           -4.98513091157851       -0.07487027769169        0.19643872697007
C           -3.87594498680507        0.21931140406335        0.13526535023004
C           -2.51073826539685        0.57864234649675        0.04357288201216
C           -2.29590377150269        1.91726651398265       -0.26173795926497
C           -1.09566378473996        2.60526801435495       -0.27064178433572
C            0.16012610131672        2.07544990983648       -0.05673338936287
C            0.59870871832981        0.74926606742057        0.02001779183008
C           -0.18396803124628       -0.47676292580614       -0.02057260893924
C            0.49618916792770       -1.70796370953384       -0.22035174035143
N           -0.22638218760344       -2.90244993799673       -0.43168646816781
C            1.88496186332092       -1.81047966471660       -0.20568441506291
C            2.64924295859819       -0.68428418202552        0.00972041552019
N            3.98091890788837       -0.48556218515112        0.07185898980386
C            4.08834498607147        0.83474341256256        0.18748391934152
N            2.94985564378085        1.54419768761033        0.19576811234677
C            1.99534624283283        0.60468359765154        0.10057111750292
C           -1.58514034652041       -0.48382117419698        0.27094600004714
N           -2.11407138854738       -1.59625232317739        0.80583474441063
H           -3.19452719432859        2.49618615953505       -0.44107702386793
H           -1.15369955879856        3.67289943389435       -0.43190660155169
H            0.98267219475889        2.77935775801540       -0.00421545151223
H            0.39042984950477       -3.66619855848117       -0.67704648979235
H           -0.97194936848116       -2.81754196190799       -1.11100622142672
H            2.35515316097095       -2.77041851847786       -0.36620871006435
H            5.04536432605906        1.31764758612248        0.26689140240174
H           -3.09904051587406       -1.64120101356565        1.01147906159242
H           -1.53266291303753       -2.41279255251806        0.93212851449112
