31
 energy: -58.662943408157 gnorm: 0.000796185375 xtb: 6.6.1 (8d0f1dd)
N           -5.75127206490787       -0.48708765845675       -0.16814775446935
C           -4.66082947610708       -0.13059177095436       -0.09087586954510
C           -3.31817461102434        0.28761407673520       -0.00179917219971
C           -3.11277952121361        1.58031991236037        0.47480807150214
N           -2.05304942983428        2.33522879745843        0.39659518906150
C           -0.82851843938767        1.99679170271662        0.00859221821269
N           -0.03364106147372        3.00864005764802       -0.30960542203529
C           -0.22279763004939        0.67592639193661        0.02949765953236
C           -0.93894567630904       -0.57660323783938       -0.00495498462299
C           -0.15768521566054       -1.76843643701693        0.17495574254132
N           -0.76359029030455       -3.01893545244363        0.31425956752410
N            1.15266077264838       -1.81643546313812        0.22884838520688
C            1.82688561973240       -0.67814258062750        0.10099595723378
C            3.19702114898861       -0.40334444466149        0.05110926651864
C            4.28775000329863       -1.26268483421711        0.08583171398937
N            5.23013769271803       -1.92296849451311        0.11979994274163
C            3.28034848714210        1.02129909983297       -0.03443569106901
N            4.42558854234993        1.72446714199375       -0.15117009282900
N            2.08073266849834        1.60971191737577       -0.04755331305659
C            1.16352404182218        0.60535952857437        0.03117284970971
C           -2.32385804969903       -0.68406536364595       -0.32383715800069
N           -2.77052544787517       -1.81082623619209       -0.90275145394943
H           -3.97821672012291        2.09050248637185        0.88920832156124
H            0.98473209445541        2.80243152046305       -0.35031894665436
H           -0.40627214188190        3.94118704157500       -0.22816414392541
H           -0.05913497138346       -3.70759637775243        0.54959913984575
H           -1.55203928998653       -3.05023202770772        0.94673741260635
H            5.29729971165438        1.24755978664778       -0.00113402863063
H            4.39380025827730        2.72268917756107       -0.04636278880244
H           -2.12750467665454       -2.56413348725455       -1.09513432700622
H           -3.75207989431111       -1.91869128362880       -1.10022034308963
