28
 energy: -51.479535556368 gnorm: 0.000618117353 xtb: 6.6.1 (8d0f1dd)
N           -5.70413932287116        0.23769275506552        0.69594588869057
C           -4.60231814002097        0.01085954238080        0.46351480650811
C           -3.24717388962673       -0.26918601483972        0.19291596893518
C           -2.86454322744103       -1.62742438315065        0.19912259490039
C           -1.64430825604032       -2.16625169960345       -0.07570416744033
C           -0.36125644709380       -1.56903216590029       -0.24952217864754
N            0.58433944567144       -2.48333641773307       -0.46585034659644
C            1.86815775547878       -2.16275066042700       -0.44361993537767
C            2.27243130845385       -0.90071332005847       -0.09462614149850
C            3.53466656495427       -0.28333203291733        0.17927003431129
N            4.73580231590135       -0.87095792854353        0.15274429327618
N            3.38193182977411        0.99847220325177        0.51049176665932
C            2.06906065748987        1.29780782218537        0.43747211513831
N            1.68749146240123        2.51050010380031        0.85786017120148
C            1.28367827446621        0.14832334801341        0.05288872772120
C           -0.06168880998750       -0.15664517905246       -0.14831977606972
C           -1.06880573193514        0.85942221264879       -0.34830879731595
C           -0.61753477669729        2.09212208142814       -0.83802086085736
N           -0.26616262250359        3.11033090861612       -1.25010998089581
C           -2.44046667331998        0.81167799236721       -0.15192757168654
H           -3.66882597751871       -2.32580803032241        0.39950337273125
H           -1.58145505214969       -3.24651719537453       -0.09693779432322
H            2.55644432321703       -2.96685722623332       -0.67226917548477
H            5.54673331228415       -0.32331299972926        0.37950283428248
H            4.83329850965405       -1.83475936956068       -0.10628511170001
H            2.45291305523087        3.13620442263664        1.05927096937306
H            0.82858974859785        2.92969584098047        0.53487692296309
H           -2.95702314306888        1.75782572597140       -0.28391749599763
