30
 energy: -55.714118243580 gnorm: 0.000878664304 xtb: 6.6.1 (8d0f1dd)
N            3.71272919267071       -3.36421924713192       -0.41390165540912
C            3.04737545171948       -2.43670911418377       -0.28639754543532
C            2.23161234949695       -1.29236295493033       -0.11962214408071
C            0.86246478254892       -1.57384603014057       -0.07497886963191
C           -0.26472474246733       -0.77636678419068        0.05317383444467
C           -1.53955136073764       -1.43431813038369        0.14275815549671
N           -1.62222212283475       -2.79785326228821        0.27190305469641
C           -2.73687838425549       -0.71308986127962        0.04070521242931
C           -3.97121984656613       -1.38755634507103        0.11228047154701
N           -4.97267106641646       -1.94580039416291        0.18557764104872
C           -2.71868305741964        0.68230870566166       -0.09522904154748
C           -3.66875045152743        1.68525011556196       -0.19919709744470
C           -2.93307611932859        2.88287635417795       -0.22023648786848
N           -1.61561797263289        2.70326202709493       -0.13565195267519
C           -1.43189308199815        1.36960338697108       -0.06259582706099
C           -0.22393683150127        0.68242654855629        0.02786323736319
C            0.92390847907354        1.48908662946680        0.08948924334351
C            2.27189592393065        1.20059246562747        0.12316497907208
C            3.13532925868377        2.31789023431363        0.24086263818161
N            3.86384341527864        3.19874435006997        0.34330107251769
C            2.91920715892310       -0.06607629569790        0.01100760784354
N            4.26374314119596       -0.08502220456924        0.01376889767878
H            0.66896273787073       -2.63404109413616       -0.19372478727003
H           -2.55068467358434       -3.17083992751972        0.39773286607871
H           -0.89251268470352       -3.30229391573526        0.74329197410426
H           -4.73443301259674        1.58068353512295       -0.24868250670051
H           -3.33181754862854        3.87919597133144       -0.29412640917296
H            0.67128713937510        2.54480292456197        0.11769313721826
H            4.78493700705701        0.77359436279757        0.08837807567331
H            4.76274037577469       -0.95391363309493       -0.08846445763996
