35
 energy: -67.135540381028 gnorm: 0.000740025111 xtb: 6.6.1 (8d0f1dd)
N           -4.90101631824958       -2.59882511353080        1.17957801178008
C           -4.03126455567441       -1.94777906731698        0.80531410168852
C           -2.97222713066092       -1.14075745088440        0.33644416069364
C           -1.83612599721220       -1.84326819760423       -0.08245424870021
C           -0.55818430212049       -1.40753394927047       -0.36648873755204
C            0.46751342366507       -2.41870308967838       -0.56186134772097
N            0.13148324765249       -3.70869613554134       -0.83438084618480
N            1.75032420162739       -2.19472075168998       -0.41102045821862
C            2.14077656252027       -0.96221486346182       -0.09089943318713
C            3.43168667979112       -0.51176319787266        0.18250036150532
C            4.60737312588688       -1.25425931818453        0.26280856513023
N            5.60984744876332       -1.81239532026478        0.34587379889856
C            3.36149362644224        0.89960290531430        0.40697121945708
N            4.41621797119124        1.68004776009699        0.70661008646953
C            2.03556623267588        1.33020390870895        0.22244078762508
C            1.61510884737789        2.63437474098004        0.45039934061249
N            1.28594811342462        3.72444933305591        0.63501563319392
C            1.23738347596825        0.18267989430593       -0.08764906638222
C           -0.11013446035113       -0.02968679849993       -0.32236278820100
C           -0.99155034799956        1.07876466630250       -0.63403777074451
N           -0.43845910427561        2.07650205371478       -1.33790840417710
C           -2.34605376982468        1.20054958363227       -0.29658543909797
C           -2.93723464693155        2.45481846632294       -0.56280128640441
N           -3.43996923618942        3.46465865911303       -0.78439616048578
C           -3.21452067224499        0.24833865634506        0.30445529967811
N           -4.38899750581619        0.69643032997328        0.78695660788532
H           -1.97079736116895       -2.91796806992062       -0.05128211843553
H           -0.71018060407207       -3.92449156263803       -1.33806874233836
H            0.92030399293522       -4.31790453143529       -0.98014327397199
H            4.26961377975087        2.64317183952513        0.95495760925088
H            5.30312557900903        1.25239185428188        0.90938542160755
H           -0.93729087500911        2.94205455388586       -1.47482861642557
H            0.54978822817509        2.07125315675240       -1.52798138350436
H           -5.06750573609312        0.04535750670016        1.14657175847304
H           -4.63100283115905        1.67107257498726        0.71954368938098
