29
 energy: -50.414523741105 gnorm: 0.000765809219 xtb: 6.6.1 (8d0f1dd)
N            2.03528826746144        3.41878558502084       -0.01421577857883
C            1.75913508140316        2.30206664959558       -0.01337681109874
C            1.52224372447025        0.91052048851732       -0.01627787442493
C            2.68316359383195        0.09097408987785       -0.09754191102510
N            3.87057046338847        0.71549111802134       -0.27258925863514
N            2.79473982605138       -1.21915597329748        0.00429300234393
C            1.82054664777523       -2.11695804986970        0.09500300161971
N            2.29406855324106       -3.38653198705980        0.20862143733339
C            0.42869500285390       -1.96091965896557        0.03049744332539
C           -0.35591053281004       -0.81605380161558       -0.01007179634987
C            0.15938224381264        0.55930280055639        0.04315943655012
N           -0.64000324319334        1.61702772077814        0.12613055584807
C           -1.96944550807848        1.49925702612278        0.11755899212381
N           -2.65213840784288        2.65163019045527        0.24060800049129
C           -2.59107003088957        0.24967699285689       -0.01313241408538
C           -3.92456799910287       -0.16841405946475       -0.08715333991804
C           -3.92956264879050       -1.56073506888744       -0.19319814390628
C           -2.62489365877107       -2.02842595992094       -0.18042970978988
C           -1.75738724827375       -0.92000647619061       -0.07163492944064
H            3.92981524726427        1.71796217732513       -0.30057969592930
H            4.70137423489808        0.15213783908532       -0.28173199494455
H            3.28414634494149       -3.50716405810571        0.32422411314427
H            1.67683337537500       -4.15171324184649        0.40594575747656
H           -0.12357623361802       -2.89228565661194        0.03359112257292
H           -3.65359260043208        2.66362689743817        0.19106845499683
H           -2.12987670311179        3.50823005933615        0.29755205584978
H           -4.79540763259224        0.46287287317993       -0.06799047291024
H           -4.80997905145190       -2.17322434262925       -0.27358372775220
H           -2.33657266250995       -3.06145055060200       -0.25414718258694
