29
 energy: -56.790979847069 gnorm: 0.000835608982 xtb: 6.6.1 (8d0f1dd)
N            5.78871652738287        1.56714852728375       -0.09335979036674
C            4.69900738565371        1.22146294517198       -0.00755646224875
C            3.35837267917153        0.78838638209174        0.10468824089833
C            3.12135656605525       -0.44134550287540        0.76591800216837
N            2.07322247987856       -1.18273850690568        0.66116133459598
C            0.85368617983258       -0.98528580804376        0.19415722941446
C            0.09369770770200       -2.12904025555491       -0.09724629444253
C            0.74421673645028       -3.37543729728419       -0.19125337977106
N            1.21757814251923       -4.41546057321892       -0.30071978211060
C           -1.31684008885366       -2.09245442201382       -0.22687948841740
N           -2.00126127701447       -3.20906389499204       -0.50180843800179
C           -1.95604316897854       -0.86083408991826        0.01502390158255
C           -3.30213277316993       -0.52286720246928        0.08113665298603
C           -3.38716243451143        0.86650755129959        0.33721206906202
C           -4.58778162777906        1.57219025349283        0.50793021618372
N           -5.57919355843409        2.13220142370597        0.64985277288501
C           -2.10476932110477        1.40453578211242        0.39444449613304
C           -1.18347229750466        0.35315331351841        0.19028091359012
C            0.20907556433398        0.33847734292843        0.10268904645417
C            0.97014847614469        1.47067565536434       -0.26421351745242
C            0.26856369988286        2.60822506599268       -0.74508288094755
N           -0.22000255689190        3.55468193555877       -1.16885036392392
C            2.35762559853198        1.62056595750429       -0.37887943161591
H            3.92312295487764       -0.86620036379299        1.36116688796836
H           -3.00559332716740       -3.19763793684919       -0.52697334504593
H           -1.51633085964910       -4.08408591027694       -0.62052383178281
H           -4.14875526419046       -1.17521328552242       -0.03131071557632
H           -1.87306287160641        2.43081480220049        0.60271713179239
H            2.68697905694141        2.55082264539262       -0.82951771660832
