24
 energy: -44.577167207538 gnorm: 0.000495777366 xtb: 6.6.1 (8d0f1dd)
N            5.48657374586219        0.22869081300638       -0.17584422401259
C            4.35761331265036        0.04046991378174       -0.11794416661302
C            2.96169056428193       -0.18953212431210       -0.05113857548986
C            2.50177918285153       -1.49424014788895       -0.30680015889345
N            1.36583450132032       -1.96951065160218        0.12305679610656
C            0.25373054387876       -1.42716026167420        0.46226552874702
C           -0.19182322769374       -0.10459897920682        0.11961245130822
C            0.74225838100753        1.00204803643250        0.12456747252448
C            0.18642109925260        2.31342700356386        0.08190115158441
N           -1.07781586931328        2.60093387790618       -0.05023244204474
C           -1.94803161126969        1.60067449671464       -0.10055329652163
C           -3.34376577428525        1.62875829045694       -0.15642086074209
C           -3.80396404971592        0.31393734355386       -0.15583007856566
C           -2.72075600563357       -0.57541015926919       -0.07550115820801
C           -2.79374446705932       -1.96779873833917       -0.09469755793458
N           -2.84171040939391       -3.11736654020543       -0.09790480060735
C           -1.53023163273692        0.20005358502174       -0.02496651392899
C            2.13836030437846        0.90709782373288        0.20344338960923
H            3.16271419469020       -2.21361441052972       -0.77516457583750
H           -0.44099821733165       -2.07089192235962        0.99116435416042
H            0.85933781421953        3.16051996487563        0.11285947121117
H           -3.94951342175947        2.51345250794916       -0.18073872097394
H           -4.83429470521390        0.01063612987394       -0.20469633399902
H            2.65606221991555        1.84887056251237        0.35334574852270
