33
 energy: -57.285312298679 gnorm: 0.000866455665 xtb: 6.6.1 (8d0f1dd)
N           -3.28332667791583       -3.23323327293947        0.44767796076042
C           -2.54752320553385       -2.36603584590260        0.27582579904447
C           -1.58139413235631       -1.36407510726665        0.08385718068798
C           -0.22769193206704       -1.71571429159394       -0.01695299551416
N            0.11331258660661       -3.08768006979374        0.03029755834716
C            0.76899973001403       -0.73587172936261       -0.17961543994134
C            2.13455732673414       -1.16268429652670       -0.40584394336835
N            2.34714722870157       -2.25590771382261       -1.15906262247399
N            3.21031614546229       -0.62979141127747        0.11869558499962
C            3.42292990138599        0.61837853105430        0.49962815257524
N            4.56177022166391        0.81272444281092        1.21329856165193
C            2.70634806282168        1.72250656201957        0.02819237035901
C            1.40088932655754        1.70415004384331       -0.44629774812903
N            0.95165179878630        2.82343804155050       -1.05302419269275
C            0.42854247425571        0.65859137680533       -0.22333834058822
C           -0.92466625057884        1.01387626275616       -0.10013258186431
C           -1.65045238512387        2.21336177091686       -0.00519741719792
C           -2.98811648304640        1.83791529625507        0.15866730099346
N           -4.07171326344980        2.67538034414810        0.22675998925475
N           -3.16731734620117        0.50053433782937        0.16957922536269
C           -1.94769716038067       -0.01836643488424        0.03998203640206
H            0.86494067422427       -3.29223230181830        0.67713359940929
H           -0.69956577748235       -3.65471964350150        0.24376290464488
H            1.56321861041956       -2.83957629216856       -1.40806884384352
H            3.28709117730667       -2.60527273085178       -1.23654530139929
H            4.74474974801520        1.70638295407425        1.63034098348294
H            5.03451030264638        0.00254845233510        1.57192112701995
H            3.21585116775051        2.67796149801241        0.03205700964693
H            0.02209829798813        2.83791444398979       -1.43520213363158
H            1.57132754509742        3.59774843334266       -1.20986597657499
H           -1.30211840509358        3.22847336478531        0.03565412242010
H           -3.90861162984100        3.58938278805681        0.61773365950046
H           -4.91387484367003        2.21806892132678        0.53906316055712
