27
 energy: -50.974136089889 gnorm: 0.000364805384 xtb: 6.6.1 (8d0f1dd)
N            3.46134131061467        2.73143664464931        0.00786637306353
C            2.83762004431633        1.76377661325087        0.00562026311932
C            2.18017329016913        0.52084551828247        0.00275782205644
C            3.01798985857926       -0.62891993330113       -0.00634486459320
N            4.34895541317709       -0.42895079331289       -0.01075645814933
N            2.69044504877335       -1.91998229618896       -0.01155795707903
C            1.47199707948559       -2.42650366730645       -0.00887330373491
N            0.26576353871255       -1.94091096376867       -0.00040128759176
C           -0.08158348275726       -0.62179622868791        0.00821839395641
C            0.76354511692542        0.55997094728208        0.00966345281066
N            0.25157922877006        1.79914599844994        0.01814305715203
C           -1.04974526657247        2.02546999320476        0.02601916358252
C           -1.95829013782410        0.98918707503207        0.02602358143690
C           -3.38070415509745        0.80578658770514        0.03282201571143
N           -4.30900168259291        1.76723358830267        0.04145157175907
N           -3.72542348954228       -0.49456337482396        0.02827178262827
C           -2.58419882252126       -1.20139556594527        0.01862018863599
N           -2.48787170813996       -2.52303719127254        0.01163437840309
C           -1.43260763760127       -0.34225203142671        0.01676158989571
H            4.73611736153999        0.49948178664179       -0.00785980688744
H            4.94413216607269       -1.23878166752637       -0.01734697706299
H            1.48764472423219       -3.51803861474354       -0.01506193928020
H           -1.33407675299277        3.07071655985651        0.03231525005667
H           -5.27860424258535        1.50445399014068        0.04851207235098
H           -4.04496139116332        2.73515166859865        0.04927805462223
H           -1.53605280648986       -2.88060230302778        0.00448536468193
H           -3.30460218528804       -3.10818986336466        0.01265128335570
