24
 energy: -38.990159698725 gnorm: 0.000496952104 xtb: 6.6.1 (8d0f1dd)
N            3.17619036436135        2.13121872977680       -0.00624205505237
C            2.44352576220495        0.98976868606697       -0.00402719587579
C            1.04458789240149        1.12339802186815       -0.00421670095187
C            0.03290799175688        0.17073569603207       -0.00298111839795
C            0.24606408205619       -1.28312557478842        0.00376661941720
C            1.50892048496160       -1.89551688507585       -0.00827192098542
C            2.78020504818302       -1.34664119855838       -0.02146013503667
N            3.20550218442793       -0.10389658019063       -0.01541210891691
N           -0.76298022815598       -2.15676937722852        0.01828417484319
C           -2.02180367722788       -1.74490173291248        0.02184218139556
C           -2.37175233655435       -0.41197349527858        0.00709074794869
C           -3.60410783803795        0.27675039797359        0.00264243277636
C           -3.32822573371178        1.63210553064163       -0.01204428283915
C           -1.94110875300419        1.83151106231962       -0.01634931080475
C           -1.31588621317199        0.57998039037232       -0.00520700972313
H            4.17613865005673        2.04534162298524        0.02408178605868
H            2.74792507290790        3.03558472701304        0.05287009132381
H            0.69932196737290        2.15075113666218       -0.00477467600665
H            1.45399889761451       -2.97640737428716       -0.00798076790792
H            3.60457093720235       -2.05527099554516       -0.03448800532928
H           -2.76510255121941       -2.53395839396402        0.03581925220675
H           -4.57588621460665       -0.18110218391977        0.00928742557930
H           -4.06051168839599        2.42001242707732       -0.01939380133907
H           -1.46167859612162        2.79410035356010       -0.02781238128258
