33
 energy: -53.271013679690 gnorm: 0.000295215065 xtb: 6.6.1 (8d0f1dd)
N            4.75448332282778        1.76390432028383        0.30459589305711
C            3.84643834994237        1.06405292563600        0.17749193380135
C            2.76839498967163        0.20687292710281        0.01299000668734
C            2.84068692832369       -1.15560955881694       -0.36431579141892
N            4.00607956846641       -1.85411399549624       -0.56120335471063
C            1.54815461760380       -1.68382761448111       -0.42207081410519
C            0.62673971722503       -0.66286235980479       -0.11903302608623
C            1.40062606340955        0.53353023122745        0.13276387614235
C            0.76536718203516        1.70732594456092        0.48283291335298
C           -0.61449392810318        1.79395625146506        0.38110617917566
N           -1.21090744026948        3.05681359170085        0.62490438660763
C           -1.40809110159943        0.67733554794882        0.01971441643967
C           -2.73182028997384        0.90448722233669       -0.49293867361301
N           -2.95781138376145        2.10291016073553       -1.08902833963337
C           -3.80973682396245        0.02038908635747       -0.51091652204594
C           -3.87928966644703       -1.26808446503060       -0.02059472978262
C           -2.84741305434048       -2.06589962767900        0.41610042121680
C           -1.46633657558047       -1.84247039254481        0.34161180896564
N           -0.70092812284478       -2.91882622375872        0.67922724230781
C           -0.77835278510504       -0.63378732131368        0.01926549694960
H            4.82920038701664       -1.29545785347011       -0.72485038206357
H            3.94035868291704       -2.68782173023357       -1.12286486946613
H            1.32914544299968       -2.67237591698546       -0.78430013318098
H            1.34169260872863        2.57370967242379        0.77888641896393
H           -2.03587042664407        3.00192951942225        1.20960829801674
H           -0.54044885024981        3.70372385626792        1.02013555656839
H           -3.88538957406213        2.33148428392786       -1.39888829167006
H           -2.27202113146902        2.83664810528146       -1.00106343814865
H           -4.72946027878726        0.42821134272614       -0.91371330059754
H           -4.86691571107435       -1.71168495792860        0.00602029388931
H           -3.12922587667033       -3.04528629054208        0.78565651887467
H            0.26594398366054       -2.74939134345133        0.91739415752952
H           -1.16088391198339       -3.69341753116777        1.12790538717609
