30
 energy: -50.119946462856 gnorm: 0.000617002918 xtb: 6.6.1 (8d0f1dd)
N           -0.47004096335047       -3.50214805406946       -0.79648533152642
C           -0.64429540849065       -2.41221661824405       -0.46694765351523
C           -1.01541056522053       -1.08632421768933       -0.16118251599641
C           -2.42899314747032       -0.87128539119796       -0.23617390878394
N           -3.20450400880498       -1.94990689674744       -0.53439624799619
C           -3.08830755345018        0.31053278995781        0.05634578947620
C           -2.51617569848365        1.55961335313781        0.34837123431873
N           -3.33964463287408        2.52632387146482        0.85323462412786
N           -1.28720250047608        1.97331393735501        0.13661747565432
C           -0.16541395960979        1.29693867514238       -0.07122240010899
C            0.93974629430992        2.08298297640743       -0.38792582656431
C            2.24995790901925        1.60703073130913       -0.37745786414180
N            3.28319708583736        2.41936214951155       -0.70698937905196
C            2.46262975047668        0.27664881470812        0.02175673419398
C            3.62876706214688       -0.45978472301998        0.25177384036071
C            3.25652636520834       -1.74171039176545        0.66865848383097
C            1.87697019987828       -1.83705078042188        0.67297350714866
C            1.34065635405627       -0.59122976867338        0.26211411325112
C            0.02087133146215       -0.16341960122112        0.06635255427561
H           -2.78394768212545       -2.82207285394074       -0.80291595388458
H           -4.19348122326876       -1.83274598156760       -0.65370107097776
H           -4.17097653216728        0.26672380296679        0.06308743640803
H           -4.33600496644953        2.41862202718862        0.78886129474820
H           -2.96751104349204        3.46004874009166        0.87623478326517
H            0.75684906227424        3.13139303207770       -0.57156599461269
H            3.12000778547523        3.40332541283803       -0.82815811766752
H            4.22184590301693        2.11217692303799       -0.52611604488981
H            4.64090438300967       -0.11141315402652        0.13956637058112
H            3.93722905715197       -2.52599464974977        0.94689803236320
H            1.31611656510988       -2.69348457336113        0.99502911511361
