35
 energy: -61.527726009376 gnorm: 0.000792693191 xtb: 6.6.1 (8d0f1dd)
N            5.44714401022394        0.08365126209248        0.75566163353863
C            4.33347191097473       -0.07209000061058        0.49760994999182
C            2.97990943996442       -0.26861390719202        0.19053629052421
C            2.51523882878159       -1.60756801960621        0.22565082008949
N            3.43051450773844       -2.55848479757762        0.55435586290411
C            1.24055963006998       -2.05927585674725       -0.09290075032521
C            0.02332658865943       -1.39215597489350       -0.24717175141512
N           -1.00315754346117       -2.21214659223842       -0.49997859209873
C           -2.25676705419352       -1.78671488810316       -0.43655524540438
N           -3.22884744293882       -2.70668547092768       -0.75440532651406
C           -2.55157128601731       -0.50814098170361        0.03173998790787
C           -3.75402101162991        0.13294068945221        0.40493404095120
N           -4.99866301549777       -0.43340766851757        0.39873398297553
C           -3.44798139388474        1.45108615124157        0.76176586927594
C           -2.08162125808441        1.67113426579609        0.61856614214944
N           -1.46089126961094        2.79560227507465        1.05831036521837
C           -1.47263967799434        0.44291776047066        0.15302305845535
C           -0.17003041285986        0.04643390252723       -0.12404418801755
C            0.87754878947832        0.98486457642012       -0.41536099963216
C            0.44925122110270        2.18293199839474       -0.99738904810875
N            0.13026360604771        3.16533784049650       -1.51574223580639
C            2.26804198489034        0.87370300560614       -0.24910703384614
N            3.01113061529338        1.99541587337623       -0.46299533017537
H            3.16444557846562       -3.52550190058078        0.56252463069193
H            4.38103534315187       -2.30714168542008        0.75988726724670
H            1.12889024222827       -3.13614771333402       -0.13237263541055
H           -4.06334125061527       -2.33787864871451       -1.18306720314093
H           -2.85674614725852       -3.53431559162998       -1.19687478465233
H           -5.71277270838054        0.07622272836521        0.89599303041288
H           -5.03007513269015       -1.43351249922669        0.52214370126186
H           -4.15555653566852        2.17822914873910        1.11707956133548
H           -0.55201184234795        3.03027146752391        0.69838795296646
H           -2.06152902099113        3.58208893810700        1.24676029538648
H            4.01457705337582        1.93416851750831       -0.45837457143312
H            2.58099517657848        2.80997149083072       -0.86574925130287
