24
 energy: -44.576753138715 gnorm: 0.000826053261 xtb: 6.6.1 (8d0f1dd)
N           -5.36748424903804       -0.74750819831966       -0.05685115349297
C           -4.23223613256207       -0.58398986089055       -0.04464407183681
C           -2.83561901479222       -0.39129074296880       -0.02340919510779
C           -2.26770341156837        0.65848523322018       -0.76631704033533
N           -1.09796631860752        1.18977154252515       -0.55270946655432
C            0.00699569821985        0.75529589367481       -0.02258304054704
C            1.09902590424049        1.60233766721556        0.25962299298440
C            0.87919060135994        2.98011249986678        0.45749178336762
N            0.70661534422029        4.09980120780484        0.63702148390737
C            2.39810304254070        1.08459777541944        0.24034712763291
C            2.61242022268212       -0.25312990575355       -0.03451589725830
C            3.79748342290259       -1.01186026141640       -0.13765454082008
C            3.44886181267209       -2.34478175051209       -0.32453367801837
C            2.05934902823244       -2.46915481143308       -0.31651386588596
C            1.50818970405398       -1.18904399039464       -0.13610407870518
C            0.21343984774796       -0.73135530879227        0.08653909000027
N           -0.75322540504319       -1.45200536483245        0.58531346556456
C           -2.02936192645994       -1.25388029889689        0.74392099999496
H           -2.87458534157159        1.18118112690431       -1.49746981759047
H            3.23034776175373        1.75873514340676        0.38728837417584
H            4.79482288097914       -0.61941513771808       -0.06558841922596
H            4.14149662424303       -3.15729234518713       -0.44549323026252
H            1.49999577970527       -3.37774293370977       -0.43741532738628
H           -2.50493746560903       -1.92334493331361        1.45328787019819
