28
 energy: -45.876983659264 gnorm: 0.000195271261 xtb: 6.6.1 (8d0f1dd)
N            3.05290721583551        2.61568223695555        0.11165951815937
C            2.39918452221373        1.41238628258436        0.07513578753151
C            3.17187343912299        0.26389491811569        0.05004285774862
C            2.71812226272350       -1.06463631579742       -0.05852670173092
N            3.68346222288423       -2.03413871308681       -0.11708488561060
N            1.50325171545224       -1.56302259679345       -0.03718539540679
C            0.31059863413561       -0.96547917468066        0.02073695927998
C           -0.75525184414977       -1.85831016880493        0.11433576453012
C           -2.09889169158001       -1.48298723036822        0.11136667526280
N           -3.07819437951556       -2.40718394120971        0.23166818878309
C           -2.39204940086041       -0.11608768920016       -0.01235545255685
C           -3.57205267352620        0.63266217085057       -0.08193032737763
N           -3.31429226825497        1.94032235888150       -0.20501591781320
C           -1.98597683682199        2.07901808014218       -0.21203431597414
C           -1.32699975135995        0.84319008924381       -0.09546341569072
C            0.03843065694420        0.47969722388951       -0.04154391201397
C            0.99373132341394        1.47706537254245       -0.00596408372490
H            4.02596186236180        2.62758671806487        0.36305406949447
H            2.52254138387415        3.44248078777055        0.32442538065690
H            4.24607006680428        0.39595781777979        0.09964650560980
H            4.61948807287367       -1.79381203400953       -0.38985774788950
H            3.35792696414958       -2.96384433954183       -0.31852904568036
H           -0.50238981987152       -2.90663818175009        0.17825059563978
H           -4.03733904214990       -2.12889802968349        0.13391325888744
H           -2.85133766584275       -3.38551932019441        0.22913437091332
H           -4.59023203983882        0.28498513661964       -0.04917900870200
H           -1.55890310642514        3.06123429125196       -0.31232533095158
H            0.59680038070751        2.48524253742813       -0.01793835187432
