27
 energy: -46.163248565070 gnorm: 0.000583841185 xtb: 6.6.1 (8d0f1dd)
N            4.30748179132455        1.77525400829171        0.18184402088230
C            3.10738973967493        1.14667363140598        0.07265525708855
C            1.97180039223654        1.98208783794383       -0.01464251733888
C            0.66649574293236        1.60254774010934       -0.12064330353838
C            0.06361492678617        0.33238164613054       -0.06695197278532
C            0.68997258319855       -0.97098071873428        0.01010281392763
C           -0.15453063275031       -2.08269598671871        0.20275565607953
N           -1.47115991124409       -2.09359960165905        0.25950175096040
C           -2.07489313863846       -0.92700212585325        0.09811935977902
N           -3.38267681232201       -0.65154559465710        0.07952335448828
C           -3.41226343448854        0.68423721017669       -0.06604466488719
N           -4.57786988550767        1.36689006648230       -0.08156688954979
N           -2.22331150686176        1.32222266001957       -0.14805262139164
C           -1.33556536451436        0.32117316802722       -0.05631266409751
C            2.09736638112850       -1.18292543823688       -0.13011808166066
N            2.52474383166813       -2.45203289862647       -0.33953089294275
C            3.12463199402690       -0.23884859046035       -0.03360129343721
H            5.14845532385491        1.24719763449678        0.32920686678808
H            4.33897246851760        2.76727462478432        0.33193104310817
H            2.17734702120956        3.04531993900608       -0.00346637736636
H           -0.06754340965866        2.39547871236302       -0.20207988098108
H            0.27007809002634       -3.06399736583769        0.38067690964118
H           -5.41206608917628        0.82705326857029       -0.23002251700101
H           -4.54879413495769        2.31436981185418       -0.41405872109923
H            3.50305893029234       -2.63349581344506       -0.47618132594000
H            1.87335425136849       -3.18755374728939       -0.54021828632242
H            4.12200506737403       -0.66908642664351       -0.05756242180366
