30
 energy: -50.117564608540 gnorm: 0.000551636130 xtb: 6.6.1 (8d0f1dd)
N            5.45926036459424       -0.29307339821280        0.06404872057546
C            4.30844574722453       -0.32699412421540        0.09491858907815
C            2.90579095661557       -0.34639947430177        0.11779250486785
C            2.29896042867933       -1.53941691412239        0.56225542528727
N            1.07681571844307       -1.94987550234450        0.49592699000203
C           -0.04818743327122       -1.29811677154642        0.15033868350106
C           -1.14943079459758       -2.10736320342975       -0.06069736566002
C           -2.45440243820928       -1.61497316970092       -0.22562464969506
N           -3.47460331011053       -2.46986801824651       -0.49216870411300
C           -2.65376768575350       -0.24172061568788       -0.08439423834753
C           -3.81638748837582        0.55299720637425       -0.09457179389305
C           -3.45046860173304        1.86863903468123        0.12850815991563
C           -2.05552072313788        1.94188958002000        0.26590801917955
N           -1.35099635810044        3.09785656047175        0.52222873569527
C           -1.52570057215425        0.63230999393588        0.10966611111441
C           -0.20511062527618        0.16100649897734        0.07120378192746
C            0.84501082679122        1.04034584556324       -0.19431045628053
C            2.22465478339903        0.83136037814090       -0.27400037807691
N            2.98526058654698        1.88778017395769       -0.66985914924470
H            2.98196283370463       -2.28185683478672        0.97109037572116
H           -0.98463333141260       -3.17467972449755       -0.05947828499648
H           -4.41898731808089       -2.13584876750084       -0.42179696765480
H           -3.31698508226356       -3.45822144473458       -0.40096603319327
H           -4.82347000119678        0.20494954480501       -0.24165596140338
H           -4.11828844123314        2.70854844780514        0.19977800425130
H           -1.92386469382101        3.86622774514923        0.84089046924618
H           -0.50362188141848        2.97850344770800        1.05886341943764
H            0.53664382257052        2.03721508869551       -0.48495479495589
H            3.97416441119580        1.76617953306687       -0.80472459226899
H            2.54674455118249        2.71541723587341       -1.03102030291483
