27
 energy: -42.952393163037 gnorm: 0.000866280491 xtb: 6.6.1 (8d0f1dd)
N            3.71968545593198       -2.91684729501189        0.32796563371095
C            3.05822425544208       -1.98318967033027        0.24371763877556
C            2.24807998141873       -0.82621312221997        0.13784576753863
C            2.92492918565994        0.39806727279242        0.18564584249569
C            2.38544928443275        1.64758602935435        0.00480989505192
C            1.05023241723078        2.05275165853667       -0.12758240121910
N            0.88798915263659        3.37704676314266       -0.40847454859659
C           -0.14191778423885        1.27984057738013        0.07293785285827
C           -1.32904664237222        1.97949593154052        0.32242865029741
C           -2.57921766298035        1.37991582716173        0.36777283881390
C           -2.69430574946340        0.03473086784974        0.10198115622586
C           -3.79496239519880       -0.83558527560226        0.02075697103237
C           -3.30664833206053       -2.10582185355566       -0.23363654006432
C           -1.90747418336775       -2.07118903438063       -0.30626298406173
C           -1.48543962978853       -0.75502698447544       -0.10904469242342
C           -0.20165899515332       -0.16891811387486       -0.03875192186841
C            0.88797923426976       -1.04797876997625       -0.03082856682007
H            3.99847153140340        0.34301826987256        0.31610948631841
H            3.10259468260953        2.46004233304004       -0.04359391944309
H            0.00362678475643        3.71165377641189       -0.74598317140054
H            1.70101325854582        3.92351393875317       -0.63486137220789
H           -1.28057159903520        3.03600932218468        0.54151086684929
H           -3.45172111802345        1.97812000379996        0.59083459896781
H           -4.82569106054332       -0.55567245184902        0.13603090838229
H           -3.90388974378348       -2.99173997138347       -0.35995153080902
H           -1.29284921989044       -2.93130621284781       -0.50145222639739
H            0.61437070196171       -2.09371684931288       -0.09384720330690
