32
 energy: -54.359771191395 gnorm: 0.000963879445 xtb: 6.6.1 (8d0f1dd)
N            3.02354710260810        3.19021316133515        0.15692859667902
C            2.59047972397757        2.12324635215778        0.10942705628197
C            2.14538778011960        0.78673306564127        0.04714272789377
C            3.18730863132548       -0.14997771829645        0.23016116641358
N            4.41725812729327        0.32711625924991        0.56470951912192
C            3.09215550600198       -1.53939071816624        0.06699105035221
C            1.98001066762853       -2.28690275141066       -0.23613070816674
C            0.63707928960136       -1.91774895170874       -0.30589992254174
C           -0.16892414728166       -2.99496053703287       -0.73635446200087
N           -0.70087135966400       -3.92230097756623       -1.16041389663006
C            0.02047294157563       -0.65459477080192       -0.07316042775902
C            0.73752672184802        0.61475486743724       -0.12064583192025
C           -0.00595620660367        1.77604497224768       -0.32173018394659
C           -1.40133614784670        1.83160559206129       -0.30410702862082
N           -2.04474182491035        3.01720130346965       -0.52664360823996
C           -2.08577963983226        0.66254495271562        0.03008699518249
C           -3.44315055300751        0.38640415147770        0.28798116265525
N           -4.47908535117637        1.28734602022850        0.31026998025121
C           -3.56113672775878       -1.00284610522325        0.51872447372224
C           -2.32210488286789       -1.58686530397735        0.41489046931787
C           -1.36024564657986       -0.58006661779171        0.11067085714235
H            5.20402435026982       -0.29665100634211        0.56707728449783
H            4.59308887783339        1.31693276064919        0.57920661076458
H            4.02639393549477       -2.08003416092569        0.15344397619645
H            2.16508074106246       -3.33865984849149       -0.42665210796922
H            0.52077513823810        2.70598303161771       -0.48252626688736
H           -1.48523988379566        3.76555177905586       -0.90528437086663
H           -2.98895169231833        2.96723533193082       -0.87207131917951
H           -4.25492302913364        2.21846651346022        0.62796501700649
H           -5.34246103486931        0.92664951374304        0.68897642956128
H           -4.47964412125946       -1.50558228227437        0.76149803575931
H           -2.11565678107356       -2.62395663157031        0.59233611842821
