25
 energy: -48.303201567424 gnorm: 0.000352065839 xtb: 6.6.1 (8d0f1dd)
N            5.10175343725979        1.25633631685987       -0.43161414660520
C            3.97460115123395        1.04321270343603       -0.37132171115103
C            2.60403759268001        0.74397129871368       -0.27484139484388
C            1.65818705493271        1.64596440933184       -0.76235140379220
N            0.38049056380275        1.68891842009284       -0.49239321106329
C           -0.46346503275091        0.76589879942333       -0.10471509756390
C           -0.11601111132037       -0.67934549319397       -0.19961171066788
N            1.07598862123729       -1.10957983673130        0.11733621243970
C            2.22086031875621       -0.49474867497543        0.33680512763040
N            3.11171378060386       -1.16766008208835        1.08274258977218
C           -1.14745771696459       -1.61592379285110       -0.46509089024379
C           -0.79057316501007       -2.94346266645588       -0.77868761812821
N           -0.50510344827731       -4.02312687300451       -1.04116695034799
C           -2.48476223470851       -1.25995042516597       -0.30820046526079
C           -2.80315448455429        0.02604662688794        0.09663823149295
C           -4.01691047445204        0.69838243581807        0.35593531379366
N           -3.81566604278451        1.98626121000109        0.63627272896183
C           -2.50236161390285        2.21887253379200        0.55114153780491
C           -1.79212265057870        1.04964068884421        0.22067242938841
H            2.01444830465076        2.49211128855807       -1.34180488221940
H            2.87451095739933       -2.09414876423215        1.39551530159010
H            4.05815517268823       -0.83802190942162        1.17171585907680
H           -3.25424349948284       -2.00396998372190       -0.45827035470203
H           -5.01001412680579        0.28861451011070        0.33688452908127
H           -2.10226349575380        3.19732825597697        0.74038956965546
