31
 energy: -53.850554569342 gnorm: 0.000407822876 xtb: 6.6.1 (8d0f1dd)
N           -5.21698067244925       -1.54807473150844        0.21930156687143
C           -4.20001184737814       -1.00978870162894        0.15899445942679
C           -2.97607168296052       -0.35354778489672        0.08121178474583
C           -2.80320029785462        1.05099554243812       -0.00525079835914
N           -3.80277433595833        1.96496303028968        0.03002630438340
C           -1.41421775191051        1.31840137897920       -0.06760031817638
C           -0.63762229550083        2.45753094717194       -0.16896106491124
N            0.67747657675571        2.41720190054916       -0.17941149377300
C            1.35407053707402        1.24919282537049       -0.10105973884977
C            2.73491166149995        1.42014205720414       -0.03627196442668
C            3.76449097837224        0.47629083566560        0.07399973113522
N            5.03632131577065        0.97593731896854        0.13127284282699
C            3.62908337481681       -0.90873726378297        0.06203086387987
C            2.44603675457065       -1.65321717202252       -0.06264339764611
N            2.59249237632776       -3.01831604241695       -0.09346917330180
N            1.18298620624319       -1.27845611170780       -0.08741154453153
C            0.66306362424512       -0.03636556954433       -0.06203457357600
C           -0.72424545853710        0.05228302291231       -0.02492697868730
C           -1.70249698603205       -0.97224364274511        0.06420287944890
N           -1.39803869185596       -2.27786132992098        0.09536456937678
H           -4.74968821339630        1.64389793023622       -0.08124037502975
H           -3.59776872222192        2.91561885878739       -0.22170538454332
H           -1.06742892313775        3.45156062595734       -0.23497011238368
H            3.04042886381852        2.45884780994912       -0.04950421200096
H            5.78739661618882        0.36579177601863        0.40220964921890
H            5.15691071390838        1.95691735445133        0.31225043167980
H            4.54365701266765       -1.48523239165663        0.12886067504716
H            3.49025859278433       -3.40313549686878       -0.32912312140865
H            1.78555734984795       -3.54953723178811       -0.37396228649335
H           -2.09655124261567       -2.97375691319058        0.28768587506879
H           -0.40181838218281       -2.46341222467027        0.14312811698889
