34
 energy: -62.618891230868 gnorm: 0.000832772480 xtb: 6.6.1 (8d0f1dd)
N           -5.87714640586216       -1.60960218262002        0.76509388920514
C           -4.80144288545361       -1.25087964564561        0.56991932001162
C           -3.51296435884424       -0.76700147635670        0.34144959402352
C           -2.33393768884102       -1.51904667589847        0.26015688043599
C           -1.25864557634086       -0.64434523112614        0.06741804587576
C           -1.79783679638977        0.69058453746258        0.00026958503564
C           -3.19332456518233        0.60585548199773        0.19053753552762
N           -4.10085575620906        1.63490299585153        0.19806953306346
C           -0.96613469527772        1.76313705936926       -0.31897586650589
N           -1.44878080245228        3.00456514702812       -0.56877217879534
C            0.43341132167500        1.52377831791758       -0.32532546841897
C            1.23401576732873        2.61290353932872       -0.71327547305253
N            1.75390576578824        3.54094164312653       -1.15313348603101
C            1.00146975738689        0.25836212260505       -0.06935060409124
C            2.37680326922373        0.19490918872270        0.24685960293185
C            3.00065310309093        1.38361769322653        0.67631509207231
N            3.57943335436256        2.26360020524468        1.14145509027641
C            3.23231784413192       -0.94647972835913        0.29868111171222
N            4.47532192688612       -0.78315567017884        0.79774641138513
N            3.01085758507720       -2.16620572331483       -0.15749403592726
C            1.84787499859334       -2.71323604052364       -0.47326454856090
N            1.96044803942138       -3.97526330131551       -0.95309603215709
C            0.54859017061507       -2.21000391606649       -0.27948208604374
C            0.12412839590882       -0.90670660072706       -0.06967544502812
H           -2.29310094408909       -2.58688060671966        0.36931019656265
H           -5.03369017021216        1.36534408908994        0.47820523500926
H           -3.79142842502868        2.50623641824186        0.60139608689549
H           -0.80154564859250        3.69796760857743       -0.91331645450867
H           -2.40892656685513        3.08963294118534       -0.85712479012853
H            5.09973763466561       -1.56916047421404        0.76337358771447
H            4.80853931300752        0.11797905115423        1.09336501806687
H            1.16040987240850       -4.47334182625696       -1.29622391945467
H            2.88178323981495       -4.33580275039150       -1.12541278137878
H           -0.23803765835715       -2.94406409581201       -0.38903616712414
