25
 energy: -43.515723376414 gnorm: 0.000602589412 xtb: 6.6.1 (8d0f1dd)
N            5.61411396953673        1.09011523658067       -0.01229766379078
C            4.54122627849498        0.68004956737517       -0.00804299059223
C            3.23087624688379        0.18351758772898       -0.00285778734138
C            2.87572419981718       -1.17996213102684       -0.00003135273793
C            1.48365234211525       -1.24760856606176        0.00311405756722
C            0.57307996653272       -2.30142620151554        0.00716116445940
N           -0.72379992866859       -2.12135628416314        0.00651934977033
C           -1.25260450289474       -0.87622507052509        0.00353474263434
C           -2.63814635121726       -0.88661632461985       -0.00358630707304
C           -3.58010486734811        0.16515704887549       -0.00814183811176
N           -4.88607068484205       -0.17953764516874       -0.02084144302781
N           -3.38784083345502        1.47992006832370        0.00136000972050
C           -2.22662921385034        2.09932359255454        0.01132556107107
C           -0.92175718403537        1.63838793744339        0.01094463736851
C           -0.41871215537545        0.32919415024316        0.00539199009177
C            0.96531321038631        0.10648959435231        0.00284762125123
C            2.07213548332215        0.97114711721216       -0.00048336292652
H            3.56080037806366       -2.00700737887154       -0.00063851326353
H            0.90324072131073       -3.33379395766932        0.01057227505810
H           -3.05554987975328       -1.88657765271717       -0.00703917026019
H           -5.56874508971242        0.55779180447428       -0.02486054567005
H           -5.18026160552598       -1.13887446754711       -0.03044888446246
H           -2.34812095258515        3.17959656058453        0.01979424722217
H           -0.16656410814986        2.41345812067159        0.01616757656645
H            2.06446169665010        2.04538945866616       -0.00205502092340
