29
 energy: -49.602571779904 gnorm: 0.000347830079 xtb: 6.6.1 (8d0f1dd)
N           -4.52413646769680       -1.59376919828588       -0.39035850538761
C           -3.35052491063388       -0.88116899460383       -0.31232602224382
C           -3.28488141594215        0.53662541990190       -0.21225144130883
C           -1.96005411472659        0.88440767267887       -0.11489340064029
N           -1.40882753013783        2.10210465768458       -0.02658089529064
C           -0.11056600152516        2.19643160844982        0.08176853709778
N            0.37663630257374        3.49014709247886        0.16459916979619
C            0.79510554282189        1.07169117831219        0.13549316982664
C            2.15635546632456        1.30761551080742        0.29757688889866
N            3.19782703454115        0.54900409152964        0.00538296131005
C            3.14212497471687       -0.74143852616894       -0.27951138692396
N            4.19323906060035       -1.24223119787424       -0.96491936279772
N            2.26225622888864       -1.63894815448019        0.16249688842503
C            1.00458606024657       -1.41022150513224        0.44893750797019
N            0.37541749994783       -2.38772255857416        1.11618282007083
C            0.20451983824965       -0.25240120098828        0.07824781218399
C           -1.16156422897549       -0.35373108914955       -0.09440085953390
C           -2.07625919181147       -1.42240265020652       -0.22286170568490
H           -5.32620556803103       -1.08040099884723       -0.71908583837592
H           -4.45109779283460       -2.53195370019654       -0.75120974460584
H           -4.12582885737581        1.20268984742683       -0.22731867252625
H           -0.34972286505950        4.16634546621213       -0.02293923404859
H            1.24698852627141        3.68787928568813       -0.30122696935294
H            2.45841780456427        2.30125957350101        0.61412285303310
H            4.98383245925533       -0.64312247439496       -1.12208322110393
H            4.30388335333972       -2.23894221976114       -1.01555196911295
H           -0.59506014903524       -2.27737586211147        1.35891554966755
H            0.90062446140549       -3.19105273569449        1.41368960901411
H           -1.84264357706229       -2.46586015800401       -0.34485652745483
