29
 energy: -51.198005284096 gnorm: 0.000759293575 xtb: 6.6.1 (8d0f1dd)
N           -4.25607599798667        2.09927404225872        0.45037223736010
C           -3.39637864571122        1.34512856307261        0.33877739364722
C           -2.38419264170411        0.36809191263259        0.21610467624789
C           -2.80302314065329       -0.90641652376811        0.56681382235096
N           -2.23372243437954       -2.07907897717639        0.38551551726116
C           -1.01540528303507       -2.30439138016632       -0.07449223575404
N           -0.81168620217181       -3.59586237634868       -0.41768791291874
C            0.09604470358153       -1.40898612484922       -0.14268141757676
C            1.28546681990812       -2.02282670492619       -0.55111413675234
N            2.23152488367703       -2.57875417690231       -0.90993812805552
C            0.12131374183204        0.00447840773155        0.00558309541023
C           -1.06945451887334        0.83091764323174       -0.13496992945401
C           -0.93286951313771        2.15805412512448       -0.51993717143513
C            0.30722883215724        2.77763060767788       -0.65174637740338
C            1.43070113760727        2.08032246853405       -0.28679690708205
C            2.79337033920675        2.48353801798511       -0.18086534876077
C            3.51252670505349        1.44105305922273        0.33142305144895
C            2.64945791711297        0.32689016171308        0.54508515730419
N            3.04942477413655       -0.75743484879623        1.23157252368895
C            1.33948287419113        0.69576805222442        0.11238621577341
H           -3.80425362868946       -0.98884983390257        0.98165934989903
H           -1.60049677091350       -4.21623061806609       -0.36644740323683
H            0.05795496506897       -3.91170522674729       -0.80946742444329
H           -1.82823786819410        2.73414389268662       -0.70009317621200
H            0.36773032562889        3.80693929030343       -0.97157524723321
H            3.16831234247610        3.45361943157253       -0.44900814998239
H            4.56079382730932        1.43723941091272        0.56778761722079
H            2.47913460881179       -1.58209126690572        1.29277344790749
H            4.03456083039057       -0.86881422103171        1.40311350487963
