31
 energy: -54.653712298709 gnorm: 0.000744017615 xtb: 6.6.1 (8d0f1dd)
N            1.18185625392445        4.68356481168842       -0.11529515145274
C            0.82031684809762        3.59445184261107       -0.07122559598855
C            0.36095116771972        2.26519700545473       -0.00604953328636
C           -1.00122920535925        2.00380184873081        0.01044447334070
C           -1.50775265622456        0.69974100885154        0.06280232469520
C           -2.93671043837461        0.52464987133296        0.03750611761139
N           -3.72643647997482        1.47438162742241        0.57279436059891
N           -3.57687982406741       -0.42632616209654       -0.60944496313610
C           -3.19395950270686       -1.65101605300106       -0.86694090259731
C           -2.17847523537819       -2.34672217799517       -0.23398642122826
C           -1.08384850170134       -1.76769998529921        0.41138229872250
N           -0.36352465822721       -2.52585573850616        1.25134304098705
C           -0.61415096152929       -0.41759835973948        0.16199618708168
C            0.75999958856987       -0.16392748037008        0.09032030544796
C            1.90151131930607       -1.00776928988406       -0.00926744106138
C            1.96646447984060       -2.38572175230443       -0.13604202878925
N            2.05714887085120       -3.53227423750733       -0.24788788584693
C            3.05114155533982       -0.17703836267895       -0.11785105368857
N            4.33235234773516       -0.64359832697097       -0.17279021780128
C            2.65529098943221        1.16053878050895       -0.08175712805759
C            1.26759318401235        1.19520097767471        0.00980450821278
H           -1.68236806142856        2.83775656870364       -0.08184245381350
H           -3.34180551120579        2.27652014221501        1.03744924633889
H           -4.72170127882463        1.39054288852742        0.45887540190339
H           -3.85914110105381       -2.18740083413392       -1.53442057468149
H           -2.22212456564046       -3.42750313735898       -0.24421845984229
H           -0.50325058263935       -3.52273300256646        1.27595613668615
H            0.51083035989166       -2.17922142737320        1.61174808884028
H            5.04065246088034       -0.00481302691208       -0.49288402991004
H            4.45812640624011       -1.60938709435579       -0.43011425572637
H            3.30505842019703        2.01264388453130       -0.14863221436062
