27
 energy: -50.969787978553 gnorm: 0.000560107711 xtb: 6.6.1 (8d0f1dd)
N            2.18087934757390       -3.47508702529265        0.19828668439104
C            2.09734507482780       -2.32694020720223        0.12828200502857
C            2.05805385449442       -0.94379200682178        0.04515310235095
C            3.21538160392435       -0.10384683182657       -0.05960035994233
N            4.48481574164096       -0.53184812524761       -0.08475878092522
N            2.91440450759311        1.20011193579398       -0.13110870463643
C            1.58301539573011        1.27215550105917       -0.09447102740630
N            0.87672386713214        2.38159342980474       -0.16193636976802
C           -0.44411765385685        2.29478397225843       -0.07791049747522
N           -1.08339102281756        3.49965270972669       -0.15176056042410
C           -1.17438376102461        1.07963265724425        0.09459316773181
C           -2.53305718996531        1.13528994569134        0.42194336799530
N           -3.47066505038206        0.22533419707191        0.33341576546971
C           -3.27917961972895       -1.05370717454447        0.00475925953285
N           -4.33493894009306       -1.68066309822657       -0.53163475318846
N           -2.23068981380787       -1.83319369484877        0.27982908278668
C           -0.99408222551152       -1.43066715249082        0.38582049508438
C           -0.41675417505224       -0.17425180852438        0.11371244959701
C            0.96975900783599       -0.05984759403361        0.02704467234885
H            5.22152145078783        0.14741354311172       -0.14349081927026
H            4.69446965390893       -1.51119340821725       -0.01135832107769
H           -2.03168169857605        3.55435562645849       -0.47725471758774
H           -0.47400725632543        4.26725333130204       -0.38476271749793
H           -2.92180970172362        2.09400503207982        0.75585187921646
H           -5.19767696840694       -1.18092410976900       -0.65591700097806
H           -4.28404246637336       -2.67146890341056       -0.69171040729680
H           -0.30516124120035       -2.22578064314443        0.65830963394154
