27
 energy: -47.758004927452 gnorm: 0.000783039181 xtb: 6.6.1 (8d0f1dd)
N           -5.52009400608084        0.21745386579825       -0.34482260105758
C           -4.38024249914214        0.29201986723883       -0.23923289946111
C           -2.97461125115289        0.39152398753582       -0.11478966234359
C           -2.42593272198718        1.67534861219370       -0.22570107430049
C           -1.11461060291127        2.05040002484267       -0.09191293465696
C            0.07502849627523        1.30170426670059        0.05265037630176
N            1.13938250138399        2.08491199109702        0.16412594110022
C            2.38322553300546        1.59663787793970        0.16583878091900
N            3.36674333729367        2.49445029731139        0.34124293945340
C            2.62021963774646        0.23168329154668       -0.04338555063634
C            3.77342992487073       -0.53269771544013       -0.20322533322158
C            3.38172549972345       -1.86719780119114       -0.38746648275971
C            2.00673001768643       -1.96091336237175       -0.32238248924591
C            1.47942353870033       -0.66005190792390       -0.10201297134777
C            0.18476026164615       -0.16168638093453        0.04032888550778
C           -0.92752706868366       -1.03221546348839        0.23386748076740
C           -0.66859587039472       -2.37607526852212        0.61054783365411
N           -0.58808067621279       -3.45898405899052        0.98206514636666
C           -2.29220329272799       -0.79463775698446        0.15821624572143
H           -3.14034168885094        2.47147299270881       -0.39942762834048
H           -0.91321253087685        3.11319342479640       -0.14167102213408
H            4.33000008705377        2.21559383151756        0.31240646927432
H            3.12149112821237        3.46231353481115        0.45512705150853
H            4.78686743207254       -0.17396286413287       -0.20117318193727
H            4.05315859142367       -2.68887815134744       -0.55647901306290
H            1.44186905609023       -2.86147851842131       -0.45909365515076
H           -2.92101137466257       -1.66544389398766        0.31692932218970
