33
 energy: -64.475611534808 gnorm: 0.000671026007 xtb: 6.6.1 (8d0f1dd)
N            4.31826879650225        3.44656665738497        1.45986095381575
C            3.66304235578314        2.61196461507010        1.02757538499725
C            2.84110884473321        1.59192751222322        0.48280716135779
C            3.42800515350084        0.34380569900443        0.32744066025303
C            2.86845564806982       -0.77893042647478       -0.27484273797142
C            3.78031284354043       -1.83028793270459       -0.54911293606236
N            4.52441481913028       -2.66686883851801       -0.79521983933731
C            1.52093970485003       -1.01707204487893       -0.62203839153090
N            1.25919360063795       -2.09162537186928       -1.37452689086403
C            0.38381632991228       -0.20571842259000       -0.23773447056358
C            0.43972580040272        1.24660620148737       -0.23480579218343
C            1.55310632251412        1.99603974056297        0.10513804368218
C           -0.79071763501793        1.97503466423546       -0.45295209875816
N           -0.75452222688387        3.30932494538679       -0.72940666706454
C           -2.01968015797602        1.33962040313013       -0.28206739791725
C           -3.20678978162650        2.07810002543307       -0.46931837609829
N           -4.13020405881321        2.73155989247966       -0.66185183325866
C           -2.05621563140161       -0.02298636218699        0.06661450302693
C           -3.11559946584361       -0.87877167194210        0.38121856238754
C           -4.46598525197998       -0.53825270255414        0.51276422257277
N           -5.58074972038424       -0.28893382992366        0.62901547876461
C           -2.58323279478286       -2.17624033747764        0.58021278338281
C           -1.21756290193244       -2.15586548464392        0.34995401110968
C           -0.35759392341670       -3.23815982964140        0.53878529764235
N            0.36881842248419       -4.12005286997360        0.67586632688623
C           -0.83796132019764       -0.80277772061551        0.02141657057064
H            4.46480901494814        0.25431496535487        0.63036908210105
H            1.98515196321416       -2.76635211154840       -1.56580069476705
H            0.31008017160266       -2.35108131811945       -1.58855185737831
H            1.38539513045219        3.06096535191047        0.21610153590251
H           -1.63852919127809        3.76893121283052       -0.88148405776652
H            0.04343755276001        3.71063010968080       -1.18900554432958
H           -3.15442371709632       -3.03733416010930        0.87493715619862
