25
 energy: -44.308555401452 gnorm: 0.000749748404 xtb: 6.6.1 (8d0f1dd)
N           -5.62661413001783       -0.47275088410589       -0.00099550709996
C           -4.49975507080145       -0.25461096649648       -0.00006537140483
C           -3.12330361072573        0.01759399868491       -0.00023171348874
C           -2.55456156863668        1.30151945643985       -0.00047929059921
C           -1.16248012351487        1.14606617653668       -0.00027367719462
C           -0.11959732011984        2.04994421014741       -0.00047115026261
C            1.19282395264664        1.57698912808090       -0.00019035209115
C            2.21772222612992        2.54928213558906       -0.00010289671333
N            3.02912392321305        3.36152919526754       -0.00094655568227
C            1.52727388101305        0.19605372800646        0.00031871948542
C            2.88814998403592       -0.13574604726366        0.00108439500349
C            3.51096925994324       -1.37560566677095        0.00180352291841
C            2.92316138065009       -2.62813318318473        0.00157509222490
C            1.54989430144447       -2.90304328408562        0.00056928919021
N            0.51424114230543       -2.11420469787146        0.00018375348082
C            0.43040145318193       -0.78386686256995        0.00027671667871
C           -0.87643671434234       -0.27876738029241        0.00009781545248
C           -2.10448798629361       -0.95082542204855        0.00007029603808
H           -3.09515707773418        2.22942580128779       -0.00073025559152
H           -0.29965725260104        3.11586353490322       -0.00078261136477
H            3.56092134897918        0.71478627936837        0.00125220750395
H            4.59360191931448       -1.35219173160353        0.00248865204819
H            3.58253833896798       -3.48538760110640        0.00210351390355
H            1.27114766770738       -3.95446160179457        0.00013290881363
H           -2.24175635724518       -2.01468033371802        0.00031937335115
