24
 energy: -43.001036260838 gnorm: 0.000523453983 xtb: 6.6.1 (8d0f1dd)
N            3.81542494255618        1.31560507729847        0.70409683372622
C            2.72767801727924        0.80445336073501        0.10763155983999
N            1.87876494070886        1.72090977698315       -0.39493508720944
C            0.61197919150999        1.52576044001890       -0.57788981247999
C           -0.19793522993133        0.42586243347648       -0.18929596618537
C            0.27670523277894       -0.91541652795205        0.01473533605357
C           -0.65106928450938       -1.91036090938645        0.37272289085166
N           -1.94674405835740       -1.74098601872952        0.52633607072056
C           -2.43173900008062       -0.53003860188176        0.28829959582367
C           -3.73047356462779       -0.01264051463211        0.29881156777533
C           -3.58756599206172        1.32898859379269       -0.02862771156031
N           -2.31229058492899        1.71196221025932       -0.25138950609925
C           -1.57899061253269        0.61106109018898       -0.07946324693307
C            1.64342266116760       -1.26430287654192       -0.26537044507474
N            1.92028429031476       -2.50817724089184       -0.68797255760268
N            2.70295487768487       -0.50296675016322       -0.06011786198721
H            4.54201364076852        0.70322936239581        1.02780167653742
H            3.92423763987270        2.31307388689148        0.74435537839360
H            0.07339818867174        2.36843717883600       -1.00005951837693
H           -0.30187825329949       -2.91324824523050        0.59327623456550
H           -4.63984803058795       -0.53517365238267        0.51675509313577
H           -4.37391041925864        2.05875306319600       -0.12026345375415
H            2.88132040756811       -2.76398887782253       -0.83505652835151
H            1.19024664779450       -3.18098764555764       -0.83543696260870
