32
 energy: -53.558050190117 gnorm: 0.000566454030 xtb: 6.6.1 (8d0f1dd)
N            0.11972578235859       -3.24437378359573        1.12388393291839
C            0.49021887869597       -2.23529773166212        0.70165165231813
C            1.00764866766299       -1.02094272107893        0.23423177952358
C            2.43466705328096       -0.95185201185551        0.25448415389231
N            3.09950084746588       -2.10944911411154        0.56576390535788
C            3.20431634070168        0.13126402920131       -0.11973196239353
C            2.74471877328737        1.41852731094427       -0.46127657925418
N            3.64529751034411        2.26550924876407       -1.04778276521738
N            1.57629731780219        1.96313444098955       -0.23377635017944
C            0.39391224097830        1.41391894643615        0.04563497611959
C           -0.60441210968953        2.30868701609965        0.40514819625564
C           -1.95680825462846        1.96013620008279        0.46714974918031
N           -2.88702093682057        2.88565182460021        0.81266754365980
C           -2.31543391971080        0.67237310075018        0.06024471901802
C           -3.57140563220371        0.07073387122412       -0.12704826880868
C           -3.37830938589271       -1.21346344151244       -0.60336591212502
C           -2.00236210230590       -1.47425570649728       -0.69338647999773
N           -1.50174445919213       -2.57505238060525       -1.32191954995977
C           -1.30078580892164       -0.30538358658229       -0.24710874576847
C            0.05488533555192       -0.01475522845815       -0.06029063875377
H            2.59090461413448       -2.86148158240846        0.99927114420631
H            4.08364904827174       -2.05232277228477        0.75975925771183
H            4.27579217187130       -0.02460788002051       -0.15647156622764
H            4.62707963496415        2.06123024618832       -0.99315520207039
H            3.36984998518746        3.23063286204500       -1.10893669492021
H           -0.31110302711442        3.33335548136840        0.57804878812812
H           -2.60107821592295        3.79604370749480        1.12124147465943
H           -3.85290259386396        2.62664320379337        0.87886265486936
H           -4.52836193124608        0.52750397210984        0.05554137318087
H           -4.14951176880709       -1.91114019312394       -0.87577514395796
H           -0.55084190090657       -2.85154631250708       -1.14900829958470
H           -2.14893883183191       -3.33732625728810       -1.44304174427966
