30
 energy: -54.941710617692 gnorm: 0.000711116217 xtb: 6.6.1 (8d0f1dd)
N           -5.62497551908392        0.41601953909650       -0.14510700062099
C           -4.49485825127259        0.19473796546991       -0.10151499511483
C           -3.11355795525505       -0.03349419612290       -0.04786128569945
C           -2.68127912833612       -1.36232323543216       -0.05784224987034
C           -1.40630622490744       -1.86821361498705       -0.01033805235879
C           -0.16542846173656       -1.19048294043670        0.02361337102902
C            1.00960722114277       -1.98945424220874        0.04827976020385
C            0.90726854195207       -3.39461182726742        0.08341987730491
N            0.88564653860408       -4.54346095645358        0.11467976554429
C            2.31404470192822       -1.47361536028439        0.03751087320939
C            2.45807048397647       -0.11201860405130        0.00211290278741
C            3.55984544870019        0.81294773769278       -0.01843828307768
N            4.86033223084823        0.49925295410171       -0.02342439789357
N            3.14627922327252        2.08651607764421       -0.03377006676934
C            1.80001414343196        2.05750865957014       -0.02338946175671
N            1.01437407457040        3.12783410386035       -0.03099285514009
C            1.29276988905878        0.71925277669259       -0.00411061511674
C           -0.01487755078581        0.24941041821250        0.01546869445054
N           -0.96422472205698        1.21449434781549        0.04186917935694
C           -2.27128768980266        1.12601146880820        0.03327247078871
N           -2.90732901221493        2.31958171633932        0.09916559069945
H           -3.47937608738579       -2.09483726665275       -0.10311560249578
H           -1.33318696044343       -2.94864223820979       -0.01629255070558
H            3.15234910092321       -2.15574428876742        0.05502221832232
H            5.15896856715333       -0.45842960399234       -0.00586460505161
H            5.53773499336698        1.24069547597005       -0.03575398088421
H            1.39606097321636        4.05657583140292       -0.03506216076264
H            0.02223260495921        2.90451550280347       -0.00872780211020
H           -2.37087159148417        3.16586442891615        0.16736278111934
H           -3.91159739423923        2.36407400327018        0.09366707221250
