31
 energy: -54.647302301277 gnorm: 0.000627590574 xtb: 6.6.1 (8d0f1dd)
N            5.66024455746641        1.58280279933078       -0.11943155720251
C            4.57329966235359        1.21540829363846       -0.05429773632303
C            3.23560781524854        0.78051964745749        0.01943757932647
C            2.26614447604594        1.76662948156879        0.28974198507736
C            0.90735630034169        1.65077687764389        0.30761048302217
C            0.04734291482720        0.53802560419765        0.07775299880439
C            0.45200602856654       -0.85161492919450        0.04854774888546
C           -0.51986067487004       -1.84339468823140        0.08482861209059
C           -1.90109700301905       -1.60351293229766        0.09297398542213
N           -2.77607829051611       -2.64731651447533        0.15574917577361
C           -2.30916848603267       -0.27510195680555        0.04430558499477
C           -3.56148040517587        0.38344127976835        0.02524012606228
N           -4.80360080466043       -0.17109987406637        0.10408888157118
N           -3.41788459597591        1.70970342495853       -0.14282866859164
C           -2.10658740759635        1.96704175605866       -0.18884538625676
N           -1.68361639901701        3.24150928854802       -0.37332386395082
C           -1.32255154915193        0.77391680971921       -0.02547107199400
C            1.81904805501135       -1.29455471557760       -0.07186892486436
C            2.02068842254968       -2.68718538140711       -0.20788856212526
N            2.23702005254707       -3.81082064128327       -0.32008397458198
C            3.00644509483508       -0.58571876838424       -0.13626279097065
H            2.66678391611183        2.75292185725227        0.49675324681300
H            0.37783172259264        2.55325203746191        0.58016201610801
H           -0.20075078835805       -2.87597637361036        0.09187397335071
H           -3.70373420744469       -2.50336824626697       -0.20580176886231
H           -2.39073398620233       -3.56765169591760        0.01353184890603
H           -5.54204480562615        0.51017000206872        0.19975660744198
H           -4.90458367865204       -0.99059570034551        0.68187266209016
H           -2.41865037344697        3.88579809838565       -0.62250076671838
H           -0.79073196517981        3.38994702784187       -0.81543049104812
H            3.89454832182722       -1.18910056653709       -0.29880930145127
