34
 energy: -62.614993954039 gnorm: 0.000745327621 xtb: 6.6.1 (8d0f1dd)
N           -5.36526947686774        2.23074665449658        1.19437352082301
C           -4.41898813229288        1.64897561987787        0.89566508133403
C           -3.31687945084786        0.86993441916063        0.53921231762519
C           -1.97826163809136        1.24517770322110        0.52278425687954
C           -1.20157036988468        0.12277137453092        0.15828377644540
C           -2.11143625831906       -0.97344860992851       -0.05909511656941
C           -1.62111433131420       -2.22202079729160       -0.47291998352742
N           -2.45767696484577       -3.24097185508848       -0.82535192859421
C           -0.24430571352782       -2.42239312570114       -0.40629439782185
C            0.65795173534172       -1.42141724456602       -0.05226318714989
N            1.87658011621703       -1.84122214159398        0.26708420401143
C            2.99244919552028       -1.19888073966354        0.48536384893907
N            3.94312390096471       -1.91871307439571        1.12609599359203
C            3.34606994501297        0.11555967678555        0.04856855438185
C            4.71637733780316        0.41170034625730        0.02585367260702
N            5.84687441183133        0.63555077542048        0.01420972853996
C            2.45194723862146        1.12994788910223       -0.33634077970650
N            2.99843796453744        2.28566451006815       -0.78028389320735
C            1.02964322931668        1.06984292269474       -0.23968223707859
C            0.40889393201365        2.29019250549277       -0.58050398632722
N            0.00776458884305        3.31388018752921       -0.92101972933368
C            0.18537341776559       -0.03268865395409        0.00780903092686
C           -3.41579038578810       -0.50835438042167        0.17890334878355
N           -4.58930213992071       -1.20230994490032        0.08485962519675
H           -1.61688952320580        2.21440696166397        0.80641957839521
H           -3.36137329750005       -2.99029641365161       -1.19131743241574
H           -2.02900517866577       -4.05319261399821       -1.23994126793868
H            0.15882230915964       -3.40897068476042       -0.57825084578311
H            3.74522565846443       -2.88404774486737        1.32169354535258
H            4.88738914973388       -1.58048198757636        1.19195829663289
H            3.99864566943648        2.38714983887237       -0.80613693681092
H            2.41762625100022        3.07353933208398       -1.01029818173430
H           -4.56252313062541       -2.18419154070403        0.31241793410437
H           -5.40224144797825       -0.71229821489582        0.43058824852988
