31
 energy: -53.853129330928 gnorm: 0.000887601046 xtb: 6.6.1 (8d0f1dd)
N           -3.40747826361709       -2.80956637056794        0.05075622386354
C           -2.87384274551144       -1.78633754042641        0.03055551438530
C           -2.29818984717243       -0.50625548469923        0.00911999813233
C           -3.23787123623354        0.54842721319915        0.01230864463174
N           -4.55400175599293        0.21325586331692        0.01306143788077
C           -2.95278500063402        1.92283279483908       -0.00267881088922
C           -1.71486762368479        2.53761598945178       -0.01448838033474
N           -0.49051598659069        2.07492253966639       -0.00597571326635
C           -0.08614221838361        0.78303881090972        0.00445232662039
C           -0.86434604531977       -0.44597838358907       -0.00641241204859
C           -0.18073603439631       -1.66052544440403       -0.04200838525435
C            1.21196716186970       -1.81251038013074       -0.04519825712839
N            1.76993541059171       -3.06479339304161       -0.07277009890017
C            1.96979410854637       -0.64931046514414        0.02835964780049
C            3.34942337880189       -0.31519749080187        0.08801585556685
N            4.40695062101626       -1.17435528764934        0.11200102188664
N            3.55267262330595        1.01450409402625        0.08460242971006
C            2.33920451018233        1.58705038250724        0.04573600488826
N            2.10584412304302        2.89622683404661        0.04289286472508
C            1.29035338734966        0.60844094200635        0.02547067382355
H           -5.25369449140519        0.93028570865450        0.07019108882806
H           -4.83514008929973       -0.75056294387229        0.06839534767665
H           -3.81408994172358        2.57908448511372       -0.00532322133751
H           -1.73840002293782        3.62706497679028       -0.02872370091713
H           -0.76703646818128       -2.56908925827941       -0.07940349375154
H            1.14542796500341       -3.82022159504741       -0.30874397898557
H            2.69411007751328       -3.13925456584398       -0.46430075952465
H            5.29026195749826       -0.72321729801196        0.29690682759704
H            4.26704974256875       -2.05491490512596        0.58169046390179
H            1.11667168263050        3.13652097308597        0.01600567671569
H            2.85919390096293        3.55958744452148        0.04018572540426
