28
 energy: -50.685926027348 gnorm: 0.000930176344 xtb: 6.6.1 (8d0f1dd)
N           -3.67722903872482       -3.05245792623395        0.27719417514092
C           -3.06512941507496       -2.08327531124520        0.18455230646333
C           -2.34504191346680       -0.87563446026982        0.07674149496612
C           -0.96747807382811       -0.98865603818079        0.08198958202276
C            0.04993106402643       -0.03330866383483        0.03682711964386
C           -0.10286839743547        1.42412662528397        0.02579760995212
C           -1.31670447461575        2.07438156983855       -0.12129800457412
C           -2.62410713562505        1.60743711294298       -0.18512295480322
C           -3.12981202332396        0.31550732300082       -0.07042432227620
N           -4.46907032089553        0.15642131937083       -0.11406052508841
C            1.09974101572666        2.21272839807752        0.10534522108540
N            1.04127142863263        3.58342748863197        0.18859113645511
N            2.33212750997418        1.74233194117318        0.04886725556539
C            2.48695573428969        0.42908335032617       -0.03602627313132
N            3.61472776133966       -0.26733414206717       -0.10666778364705
C            3.18544275382393       -1.55204340209671       -0.10489732396470
N            4.05235791181064       -2.57375029325003       -0.13605854359570
N            1.85389260784564       -1.75200794039139       -0.04103810885106
C            1.35931362110627       -0.50579662594393       -0.00226938784458
H           -0.58117794004288       -2.00184555719121        0.13382432318471
H           -1.24876321445470        3.14973176920664       -0.23124430200546
H           -3.37938088607424        2.37229911210387       -0.32598382982590
H           -5.07359973909936        0.94893443235216       -0.23957124075195
H           -4.87624112139873       -0.76163126084398       -0.04725857814775
H            1.95551358077592        3.99167651329810        0.31576567677295
H            0.30606396826122        4.01014684196786        0.72574258836744
H            3.69622430454756       -3.50380496020343       -0.25996215868612
H            5.01901845029934       -2.36938267312144       -0.31202761102639
