29
 energy: -50.406047798027 gnorm: 0.000649713587 xtb: 6.6.1 (8d0f1dd)
N           -0.99137356734450       -2.86805982177309        1.13205283175540
C           -1.17469008270914       -1.81349398373756        0.68920055403608
C           -1.45815687241834       -0.55215988035289        0.17870467176615
C           -2.84478328940847       -0.34023087136089       -0.09142983758505
N           -3.65833064897071       -1.42424515714385       -0.03857998649288
N           -3.49107743204772        0.75606231288848       -0.44480332422483
C           -2.98749401027328        1.98445005576657       -0.42443481422938
C           -1.74637900957861        2.46300067676693       -0.10156053758319
C           -0.51510505237633        1.78343497396072        0.11140646333870
C            0.59936151125776        2.59392331308962        0.35721778019090
C            1.88985180293325        2.10077123991742        0.41999347177809
C            2.07711061210086        0.76291088966092        0.16398846738708
C            3.24983356013952       -0.03818757141296       -0.00362560378420
N            4.52388833135625        0.36654093539075        0.12032077024155
N            2.93960357797842       -1.28300438583740       -0.36296154188349
C            1.59262566889554       -1.37260007132292       -0.40499638619328
N            1.07628819709690       -2.50795614367883       -0.90445216701440
C            0.96322569576572       -0.12312544775091       -0.05727728049403
C           -0.35331322681601        0.34858610801491        0.03974945162154
H           -3.33949430564715       -2.30448161887838        0.32633743918165
H           -4.64220492205425       -1.25736779358728       -0.15660436083737
H           -3.74074358980646        2.72661406298518       -0.67814229061513
H           -1.66175127254768        3.54301773860429       -0.08855901569003
H            0.43487859592270        3.65331752934233        0.49022564652880
H            2.72038083681122        2.76367015643282        0.61741861178234
H            4.73594422612013        1.27651112692629        0.48428770703764
H            5.25342670579147       -0.31702160676769        0.02610090025219
H            0.15914955988534       -2.82252808681090       -0.62572731876238
H            1.76797752474313       -3.22679601933105       -1.05759582410810
