31
 energy: -54.645155142824 gnorm: 0.000787720977 xtb: 6.6.1 (8d0f1dd)
N            0.76803490094869       -4.04639736007505        0.68744705030592
C            0.41291485839490       -2.97126688532630        0.48389255149751
C           -0.09292730670426       -1.67894200343337        0.27000685825968
C           -1.49422961054782       -1.49116330088844        0.26998306246181
N           -2.32443241426031       -2.54099658182402        0.51257175477864
C           -1.96543200148645       -0.22564990882918       -0.07399081349813
C           -3.26831945352139        0.26483642326457       -0.30555489822428
N           -4.43434679331019       -0.46333519131755       -0.30538196405920
C           -3.17137954171646        1.65434520061205       -0.52788267584593
C           -1.85211221503572        2.03792762968964       -0.44487528824704
C           -1.05659441753746        0.89455450775029       -0.16863605572518
C            0.31851859538503        0.74421006949721        0.00577232398825
C            1.17243776376814        1.83693273891161        0.30857249921337
C            0.59088488902846        3.06942207272403        0.67848257534086
N            0.22175098837379        4.10153609443148        1.02508323190457
C            2.57154867603683        1.87103919608879        0.42527495239813
C            3.49854324098966        0.90851073528755        0.12138280246565
C            3.19597119316573       -0.39545724911679       -0.34157365968452
N            4.19065219370986       -1.12578498061180       -0.90006180327757
N            2.05452801911722       -1.03510476287851       -0.23555865141989
C            0.82232254330762       -0.63392796686162        0.02228053542855
H           -3.25821422704400       -2.33512617997412        0.82527461796384
H           -1.90263433874931       -3.38768148883885        0.86250610646487
H           -4.37024663394796       -1.40474756931439       -0.66408972451780
H           -5.23997946819225        0.04246377328469       -0.64364618466577
H           -4.00426653675584        2.29805089314341       -0.74475437672831
H           -1.48688969394197        3.03187909413547       -0.61347391596744
H            2.96653430752696        2.82293942344043        0.76334991399042
H            4.54521888448523        1.16511004660047        0.21017423183522
H            4.00054238732294       -2.09269508536823       -1.09969140695954
H            5.14184485378962       -0.80689268330392       -0.86986645327788
