28
 energy: -46.678565898751 gnorm: 0.000687932575 xtb: 6.6.1 (8d0f1dd)
N            3.34113742740966       -3.28199866301264       -0.01242613508111
C            2.51621831169027       -2.48344167966063       -0.00934728399637
C            1.50111176130456       -1.50555950170264       -0.00260425002612
C            0.16828951113570       -1.88799456547970        0.00381191313491
C           -0.89160958694029       -0.96582680102860        0.01006939518147
C           -2.17975869842684       -1.52390925450510        0.01447126826836
N           -3.39719318525332       -1.03839571975734        0.00686935136076
C           -3.75678273692357        0.24179379496325        0.00090744682696
N           -5.09850918743810        0.41329431140273       -0.00687547973607
C           -2.94455742188242        1.39863958654280        0.01383424028579
C           -1.57667001089792        1.47069915392295        0.02014720357475
C           -0.59178049232784        0.46389543858025        0.01458852482209
C            0.75391594069870        0.84969804881436        0.01405275203315
C            1.37729355437253        2.10263811386064        0.02504518327527
C            2.76431246211057        1.90751523828058        0.01756287708004
N            3.70560288963848        2.89686147638933       -0.03708231512614
C            3.04190916801757        0.52422945084677        0.00186001239073
C            1.83156088854402       -0.14368520745476        0.00114853275048
H           -0.06601855679835       -2.94345148980992        0.00223952739852
H           -2.19743427124651       -2.61302981362795        0.02047488004178
H           -5.51601763126475        1.32438233085278       -0.05436692876099
H           -5.67655347403216       -0.40786146754416       -0.04142982758470
H           -3.48377246989047        2.33826758949574        0.01622282041344
H           -1.17555272582766        2.47588413681629        0.02665863427761
H            0.90528350554038        3.06789440905564        0.03675898387910
H            3.41953282885882        3.82490811718739        0.22640432886090
H            4.65089999164982        2.64584138565970        0.19885631534202
H            4.01854670377914        0.07747723931215       -0.00686233348661
