29
 energy: -50.406047531761 gnorm: 0.000644216447 xtb: 6.6.1 (8d0f1dd)
N            5.10294565397812       -0.49550827038032       -0.27990354842768
C            3.97862424149438       -0.25456272631292       -0.20186954384709
C            2.61434896786944        0.06638055675086       -0.10692561609095
C            2.33361214724779        1.43179944353979        0.15300643026242
N            3.33678894838481        2.22891467197923        0.57592455969711
N            1.19660434173203        2.08115680417919       -0.07508363045618
C            0.01561344100430        1.56756040097557       -0.27005427110500
C           -0.48338628036468        0.26826134515097       -0.08400749685816
C            0.29071242150681       -0.95103954821380        0.02904439984057
C           -0.39364754090840       -2.15145565390323        0.30030283802053
C           -1.76353188666923       -2.24365911039266        0.42796110497690
C           -2.54838564282190       -1.11727862326498        0.21920153503301
C           -3.90770386811131       -0.82666579597643        0.22144570880811
C           -3.98948966198672        0.55348547930956       -0.02851127134928
N           -5.12308298902378        1.28956299651277       -0.18255445586548
N           -2.77830712508285        1.14059699122702       -0.17405889969906
C           -1.88373353330089        0.15648644034014       -0.04404157913855
C            1.69192458827083       -1.00418507078007       -0.22710793722126
N            2.23687606023093       -2.19956769158338       -0.55142169249068
H            3.15159370965179        3.21483952671334        0.63978631814304
H            4.27717200933189        1.88500417535060        0.66329738344968
H           -0.74381974601245        2.30123096191551       -0.52446082689799
H            0.17912831481138       -3.05049626872828        0.48334619688452
H           -2.21827130653078       -3.19132228595110        0.68132564411854
H           -4.73029757054407       -1.49741110896315        0.37471778607952
H           -5.00412516787994        2.28832487702393       -0.16309513848389
H           -5.97879184075854        0.92244724024604        0.19644785389826
H            1.65586502056026       -2.99790369985884       -0.72633856670741
H            3.22842708312073       -2.27472074190547       -0.70193822507299
