23
 energy: -39.267617834852 gnorm: 0.000420445943 xtb: 6.6.1 (8d0f1dd)
N           -2.40257237850706       -2.45094435552437       -0.00158934915997
C           -1.51413307133446       -1.44566414827120       -0.00116015745387
N           -0.22622902177495       -1.79974909602259       -0.00124500646810
C            0.75126999142209       -0.89871504178797       -0.00067162964925
C            2.03887373681680       -1.47202896383738       -0.00108516130669
C            3.29040707584142       -0.88465103714886       -0.00071098561467
N            3.67460881124961        0.37772171265977        0.00041956948966
C            2.87020264249066        1.42491263531236        0.00129917368915
C            1.49076288973780        1.53407593959561        0.00110638967603
C            0.49654156716307        0.54298869286558        0.00018004848904
C           -0.85431228246170        0.90657647041355        0.00012362156159
C           -1.55547789503261        2.13312396864450        0.00060951334036
N           -2.86912211840419        1.94521329250720        0.00026080573837
C           -3.09244868200044        0.61906472718739       -0.00043246678420
C           -1.89612943058034       -0.09442262977201       -0.00056827619155
H           -3.38869822186555       -2.26602958581510       -0.00201716274030
H           -2.06131844274918       -3.39634713626316       -0.00230229681942
H            2.01666087820979       -2.55444093850766       -0.00187927578767
H            4.13600425260385       -1.56807493854835       -0.00136697320502
H            3.42144562766304        2.36207902223978        0.00226113304578
H            1.10919428592324        2.54760957941581        0.00182307834681
H           -1.15440365625291        3.13003702318244        0.00116151060783
H           -4.09981651355799        0.24303840287464       -0.00080198420385
