31
 energy: -55.443484011914 gnorm: 0.000499466562 xtb: 6.6.1 (8d0f1dd)
N           -5.76801202181874        1.03447480266570       -0.46884278099938
C           -4.64351825750909        0.84185820102886       -0.32692407902357
C           -3.28653034847022        0.54948807986469       -0.16889345231706
C           -2.23872494827444        1.46254939320189       -0.05292472778986
C           -1.03131284663735        0.74893391813369        0.04361780802802
C           -1.36757444860869       -0.66025965560627        0.01344937550841
C           -2.76074825139867       -0.77256937986068       -0.14012901484233
N           -3.51145568709437       -1.91625536048819       -0.21975155813887
C           -0.37355202106451       -1.61488596243875        0.22326510878533
N           -0.65022668669736       -2.92829438151304        0.38473049120846
C            0.97372704277997       -1.16063124157050        0.21726226552107
C            1.94095837621124       -2.14467199272417        0.49904491837401
N            2.60141989805811       -3.01933452244352        0.84838036180429
C            1.33087263727249        0.19243595219046        0.06628101732332
C            2.69423595476326        0.48529701473329       -0.22780451556497
C            3.46477866690651       -0.55864545925331       -0.79866441918083
N            4.13035880048780       -1.29794100334021       -1.37248030415954
C            3.41511544862465        1.67419696156475       -0.11658694679464
C            2.98360639915236        2.92014744718451        0.28963269442497
C            1.66653673455727        3.31138273201225        0.51987012177862
C            0.51215302731298        2.57488727043583        0.39061455886842
C            0.29415180703456        1.20270035032953        0.15002419430708
H           -2.36731636197641        2.52832711253921       -0.07178596198325
H           -3.09365177163554       -2.70444464607821       -0.69039844972456
H           -4.48189169426338       -1.76596825858003       -0.45794958438912
H           -1.57932069374460       -3.19354566121349        0.66359914254871
H            0.10647018534646       -3.54381513774590        0.64223649183347
H            4.46576068049108        1.58732209471990       -0.36989462911861
H            3.74162964387022        3.68449389229581        0.39216879061881
H            1.52949210864212        4.34981238907027        0.79519558078025
H           -0.40022224121744        3.13296949308559        0.55236889611376
