26
 energy: -42.441504752783 gnorm: 0.000991707038 xtb: 6.6.1 (8d0f1dd)
N           -0.09985653177943       -3.32140193644392       -0.18646785266185
C            0.29570765113358       -1.99464581654838       -0.09693774195653
N            1.59040227547361       -1.81620569553616       -0.04799059504697
C            2.03630567462567       -0.55776649199927        0.04458774848878
C            3.32341903142826       -0.03327686918724        0.11071724500551
C            3.15666272505606        1.35214472387969        0.09338450462704
N            1.87782172813729        1.73057984765473        0.02276354950880
C            1.14485756689338        0.58086178027719        0.00210663467511
C           -0.23692618033321        0.41511340950460       -0.02953633478917
C           -1.06254014518347        1.60427948292292       -0.08407677130483
N           -0.39774690151282        2.75364514607986       -0.13795968466597
C           -2.47044229354396        1.67618400974141       -0.11053353454384
C           -3.41133192251630        0.68874977214063        0.03931573501492
C           -3.21279253715053       -0.67669920625644        0.21986700190019
C           -2.02447339969641       -1.37460989445125        0.18224170509241
C           -0.70509071972041       -0.94882884984983       -0.00584805085271
H            0.70411766492852       -3.92446321993916       -0.29433888306075
H           -0.83985899206734       -3.53155516607318       -0.83819113080731
H            4.24854041063646       -0.57116215890152        0.15819509110756
H            3.93103643532534        2.09929618104439        0.12876082373444
H           -0.90204601838211        3.62367961314030       -0.18105650678580
H            0.65553938807267        2.69350012235058       -0.08665194216260
H           -2.85566104981282        2.68470311991383       -0.21982679697707
H           -4.44350668895372        1.01794714519156        0.03519773723083
H           -4.10475948887956       -1.26624980214167        0.38779372836635
H           -2.12908617447868       -2.44023910181374        0.34121683656342
