28
 energy: -50.697846998010 gnorm: 0.000765113275 xtb: 6.6.1 (8d0f1dd)
N            4.25438797856295       -2.52099239493832       -0.27149293166412
C            3.53732058291293       -1.62916901427557       -0.15840753979410
C            2.65889713280799       -0.53187120470245       -0.02782310662492
C            3.28701191998413        0.69706472496566        0.16142199805042
C            2.72036709885801        1.94254935346390        0.32172153797125
C            1.37917592149931        2.29708683774793        0.22303833297075
C            0.24196613122261        1.53682888637995       -0.00963580424467
C           -1.00519248697473        2.26610526918643       -0.15402220163695
N           -1.00003625417560        3.63212970232932       -0.28614201316408
N           -2.20954674764560        1.74239288649990       -0.12256421004079
C           -2.29284520087531        0.42116810278089       -0.01669832209813
N           -3.38543210781803       -0.32940458241899        0.03109739121812
C           -2.90332624991476       -1.59338256306955        0.03558032614222
N           -3.73043867071957       -2.65030823001704        0.12215219540548
N           -1.56935259381969       -1.72483752398947       -0.01011662052545
C           -1.11797695108258       -0.44118661102651       -0.02778459287505
C            0.16531660540600        0.08345512329862       -0.02897974616683
C            1.26829080941146       -0.84437982171582       -0.04409899850204
N            0.93719821852947       -2.12904508639135       -0.09680932060301
H            4.36945517952562        0.65057700979605        0.20293526966970
H            3.40769083371051        2.75486442882580        0.51678519782015
H            1.19898011572207        3.35467570018838        0.36635566730932
H           -0.26731991372977        4.07297392240615       -0.81508569054338
H           -1.92675275441933        3.99905735605459       -0.44359040349157
H           -3.36519446840623       -3.56697236561892       -0.06175464385358
H           -4.71090667558231       -2.47317196219217       -0.00175152728437
H            1.65380037713852       -2.83768367847901       -0.11365152258915
H           -0.07657926502823       -2.36053179158782       -0.07729065015536
