28
 energy: -49.886919552070 gnorm: 0.000588653629 xtb: 6.6.1 (8d0f1dd)
N           -3.75297110627599       -1.66987880803588        0.68364468833045
C           -2.97488606329522       -0.64068582619308        0.23687732780092
C           -3.64124386356937        0.51136778111163       -0.25311441607831
C           -3.01120720691760        1.67195184284070       -0.64194284688957
N           -1.77950815485062        2.08918659762598       -0.43667802612056
C           -0.72229104708310        1.39124257753204       -0.05555104522721
N            0.35889468388980        2.10603895517343        0.23476652105651
C            1.57608376197626        1.56909344343370        0.25396693697696
N            2.59743040449951        2.41169513878265        0.58383879115675
C            1.77509210231476        0.23781924989508       -0.11733554038027
C            2.86042311493156       -0.65356288779927       -0.25147955288169
N            4.18968833006091       -0.35309935302259       -0.18663150163439
N            2.45492689962831       -1.93371416816938       -0.40049290361377
C            1.11680454842867       -1.92030438418240       -0.37200544832478
N            0.34692958593433       -3.01119505748855       -0.51139035067784
C            0.60428543662177       -0.59610187435662       -0.22131484373124
C           -0.67234791602048       -0.09204779304141       -0.06943610327167
N           -1.69366475583613       -0.92620973259777        0.17358503056997
H           -4.70775975605999       -1.48820853433870        0.93622908823361
H           -3.28588611548670       -2.43747449197522        1.13512958873391
H           -4.71607915865019        0.44702597240700       -0.35802588066830
H           -3.62497224615527        2.42436098303225       -1.13235138874613
H            3.43846281647913        2.00530974075476        0.95696928555636
H            2.30176620056565        3.29154373968721        0.97651756648274
H            4.79277792858025       -1.11158026088961       -0.46641897626549
H            4.46052191690844        0.55853404819430       -0.51983591221054
H            0.76834710358028       -3.92131246129141       -0.45666369808906
H           -0.63335933809876       -2.88049874898810       -0.31446255118802
