26
 energy: -46.437499697914 gnorm: 0.000342238234 xtb: 6.6.1 (8d0f1dd)
N           -3.93239233623212       -1.26757462395175        0.70027313214888
C           -2.83620432572655       -0.63316091618661        0.21281489767064
C           -2.91351595418186        0.74072230520291       -0.03416145771403
C           -1.82026409121114        1.58000431462990       -0.28348744620168
N           -2.07819642264827        2.89568980785108       -0.54682640179641
N           -0.52825399461358        1.31901078296953       -0.14873247261114
C            0.06073067948665        0.12753146457627       -0.07364059443403
C           -0.56611836610487       -1.20066974869936       -0.28202980297886
N            0.16596881841345       -2.26513836443936       -0.63495048250849
C            1.47867665315974       -2.25334377289449       -0.55907887191077
C            2.17229820096706       -1.16005885224131       -0.06078956059173
C            3.51789770057598       -0.79897269539234        0.15914275531776
N            3.65601284128561        0.49028627188359        0.45933503799256
C            2.41642261688930        1.03255501360226        0.44563370424952
N            2.16629777194345        2.32545486968983        0.69090721108476
C            1.42931412025916        0.05472916886283        0.14943361481579
N           -1.83123897701078       -1.46610420915491       -0.03954317317192
H           -4.81543847646301       -0.79667722880320        0.77037223011893
H           -3.90177504828022       -2.27150092638739        0.72903659412163
H           -3.88890304190733        1.20639653482794        0.02471601800886
H           -2.99831280628171        3.16636949950753       -0.84403900422404
H           -1.30358839761581        3.45965746484778       -0.85092170377371
H            1.97949216263366       -3.15038143936512       -0.90295235745253
H            4.38305517873109       -1.43428198484637        0.09927490969919
H            2.92858615976500        2.97525209798272        0.76614251903573
H            1.21983279786708        2.63437065132728        0.53323314960575
