28
 energy: -49.900698933988 gnorm: 0.000825943982 xtb: 6.6.1 (8d0f1dd)
N            4.76718308152875        1.01425635859043       -0.24614223774796
C            3.50081267934292        0.49666220505954       -0.23231671628433
C            2.31066477354262        1.21589107634332       -0.02983288331825
C            1.29678883876489        0.25952296830983       -0.01482057556528
C            2.00274568955484       -1.02104339536280       -0.23531478226541
N            1.37907187002160       -2.18036747657530       -0.33488033679725
C            0.07103526231852       -2.17597511065097       -0.19318424449030
C           -0.72879690084762       -1.04817281344326        0.05414085455169
C           -2.13915674557509       -1.22357140905446        0.28140118071885
N           -2.56209761184094       -2.37802791843823        0.82797727593012
N           -3.10006977546472       -0.39691541292013       -0.07824093883412
C           -2.94292183013183        0.88686835646457       -0.37376532613817
N           -3.90794672273861        1.43885780184751       -1.13629059859095
N           -2.05175240671504        1.72556542646985        0.13395038446628
C           -0.82845721871554        1.41826417100343        0.51464795217892
N           -0.19134182894021        2.35412750025722        1.23330327862876
C           -0.09117130003874        0.23315685504491        0.14655636379557
N            3.31706628264178       -0.83289580130273       -0.33452437429440
H            4.86530123897824        1.96949721091615       -0.54979731199277
H            5.46536495178068        0.37417144962354       -0.59012572091173
H            2.24228576101652        2.28808805276113        0.01822471999357
H           -0.39709968217050       -3.14322335810541       -0.33940334246655
H           -3.55141528993489       -2.54723778047525        0.88008789991714
H           -1.91247621969439       -3.11499079282067        1.03611074017902
H           -4.70444229782893        0.88200406911917       -1.38681235272767
H           -3.93656195860348        2.43747345073025       -1.23266071364704
H            0.76649464483133        2.20756974817297        1.50135009091127
H           -0.66542849918219        3.21192908813546        1.45379312650089
