37
 energy: -70.574295807178 gnorm: 0.000551290254 xtb: 6.6.1 (8d0f1dd)
N           -5.01752329630619       -2.09294718974739       -0.30404790213225
C           -4.04170894246717       -1.49460030115143       -0.18555799184449
C           -2.83989430314395       -0.77234616588130       -0.06029656149479
C           -2.89667458118688        0.58277710359661       -0.46509614025831
N           -3.95749958410868        0.99076303916438       -1.18693925128393
C           -1.99281486897802        1.55532320096516        0.01292133459554
C           -2.45070067178310        2.88764094378994       -0.03285907420852
N           -2.85341995558656        3.96366898800214       -0.07314220517178
C           -0.72219748220002        1.34029970261576        0.58243674479534
N           -0.21877842822064        2.31163774701577        1.35308847885148
C            0.11702712713282        0.19636409382497        0.31563717573284
C           -0.36435926436655       -1.15566445464768        0.28077136356627
C           -1.75346765446076       -1.48181304171940        0.49222608814617
N           -2.04439332940132       -2.59879252658052        1.17662313859428
C            0.54683625426576       -2.22200683682780        0.08741280002233
N            0.11047224439268       -3.55622773607939        0.02600628092288
C            1.92185371150690       -1.98567557732779       -0.05382543711881
C            2.79854162722512       -3.06419796619005       -0.27803490846495
N            3.46337025606817       -3.98139768830818       -0.46802503147799
C            2.40743904025105       -0.67924183862947       -0.04105017877959
N            3.66549075788609       -0.27536229267622       -0.23398582648267
C            3.62447602294310        1.06350720139550       -0.23880652765634
N            4.74242581118390        1.80269587908613       -0.38752627863604
C            2.31251631426573        1.57397486026966       -0.01573194817108
C            2.01242382148962        2.92413473098972       -0.07478218514093
N            1.80250877383174        4.05827379464091       -0.13044746411101
C            1.48653773787338        0.42830061885821        0.13523440385065
H           -4.10108241929066        1.97296116254852       -1.35567000687608
H           -4.70127377662363        0.34789264873521       -1.40315984751883
H            0.73221461397503        2.25070586949805        1.67928830930079
H           -0.65613210340610        3.22060135408320        1.37830714839161
H           -2.99916600400876       -2.91166305865460        1.25188451617902
H           -1.29665781453456       -3.21454925333880        1.46041444260437
H           -0.68691471201726       -3.71325187917735       -0.57675933872071
H            0.86970521209575       -4.18398840482622       -0.21260487878434
H            4.65506368356287        2.78304983323211       -0.59335454032284
H            5.57365506164307        1.32004315946215       -0.68135865220601
