29
 energy: -50.412164514445 gnorm: 0.000719904838 xtb: 6.6.1 (8d0f1dd)
N           -3.64902034209529        2.61563760803882        0.26263956121675
C           -2.88522179688728        1.75746957393135        0.18698343369681
C           -1.97130198013692        0.69739162638660        0.08462194357487
C           -2.46523304281249       -0.51795820009004       -0.46885917573912
N           -3.57888171267186       -0.48485944568386       -1.22716443042959
N           -2.00121997741351       -1.71093539534746       -0.17178399569520
C           -0.82443203252061       -2.05657731652011        0.30082209783629
N           -0.79320687776613       -3.26225339752355        0.89629482374937
C            0.41288625671931       -1.34341401271120        0.11219938948282
C            1.58253921167557       -2.10288777464373       -0.07721073986245
C            2.82133332175088       -1.52801544655150       -0.24832228917868
C            2.92575495316183       -0.14644515798409       -0.23085977869515
N            4.01572203185988        0.60748894967268       -0.41703271076166
C            3.58769598700955        1.87428870598740       -0.36834605316573
C            2.22424375427607        1.99488851219037       -0.12056622312470
C            1.73827574704661        0.68022218014909       -0.01716879003642
C            0.47984860358126        0.07975062708913        0.17080980469946
C           -0.64804295052814        0.91689890903055        0.50378102990125
N           -0.38906690470572        2.04254528630839        1.18806441388674
H           -3.99914907927760       -1.35413110925666       -1.50428052775999
H           -4.08195266488521        0.37567769732398       -1.35510893696763
H            0.06511386169812       -3.64011377861968        1.25309352107435
H           -1.64155004585486       -3.79843213541529        0.95020590044264
H            1.49554787485212       -3.17797423787195       -0.14957380887546
H            3.69850721101258       -2.13462506667606       -0.41102972830748
H            4.28516314580976        2.68204950574846       -0.51258958455463
H            1.68576867713437        2.92562639902068       -0.10862098083394
H           -1.11051210562120        2.72788724197404        1.33999133463535
H            0.56353899268909        2.25540618984395        1.43499494659132
