28
 energy: -45.879512196328 gnorm: 0.000662492656 xtb: 6.6.1 (8d0f1dd)
N            4.26885678837462       -1.22208692355078       -0.67403881422832
C            3.25455347986628       -0.44890763290509       -0.19186118634806
C            3.57362080273776        0.85722865693990        0.23297601928236
C            2.66590181350191        1.87650874413327        0.44502138693520
C            1.29055926957735        1.85468130913002        0.29818182108878
C            0.43053837544101        0.77155809651315        0.06898644637680
C            0.86580146724402       -0.63921287303071        0.05858246509751
N            2.09590552745340       -1.07230315101702       -0.15722958351117
N           -0.00333155732612       -1.62954325761236        0.23416222667350
C           -1.31612113812471       -1.41720619215750        0.23236348904899
N           -2.09342677495823       -2.51467258077446        0.45788091649774
C           -1.85305735764540       -0.15886945057509       -0.04896064598694
C           -3.15682923682829        0.34071501581787       -0.21623083077500
N           -4.32443071302285       -0.39997158887739       -0.23914722458924
C           -3.06612092979676        1.74288386407196       -0.31385439440818
C           -1.74182278895001        2.12430365230475       -0.21803728810076
C           -0.94727839115833        0.96500190984393       -0.06996108659665
H            5.22514622595822       -0.95639103172906       -0.52159003371413
H            4.05675489448655       -2.19344626502559       -0.82374728222600
H            4.62555735987955        1.08940422312503        0.33744875486204
H            3.09223609253748        2.83574185694667        0.71638439231023
H            0.79198468231160        2.80763607770852        0.42305739363615
H           -3.02013435350882       -2.36330559000765        0.81962121319984
H           -1.59284952684438       -3.32069172156219        0.79783623150055
H           -5.12670555954620        0.11252948793361       -0.57662173329047
H           -4.23897931032141       -1.31434300354866       -0.65920805869345
H           -3.90546990163894        2.40237320083284       -0.44847410872784
H           -1.38324315459760        3.13573656517001       -0.27563568511608
