32
 energy: -59.968737415533 gnorm: 0.000547356749 xtb: 6.6.1 (8d0f1dd)
N           -5.55807707276549        1.54041941613772        0.86742145904994
C           -4.58690968505281        0.98398745734929        0.61254473510528
C           -3.38507266770279        0.31178334296431        0.29057185766598
C           -3.37953377550379       -1.05990942610125        0.54687177028386
C           -2.49035080527166       -1.98723668406323        0.05758988131151
C           -1.25031943463690       -1.74175316645024       -0.53772742775816
N           -0.72881503576975       -2.68353673127920       -1.33154052890668
C           -0.44911037390592       -0.55942140581701       -0.28427597427942
C           -0.97561264113585        0.76579139863609       -0.28970441832786
C           -0.07761511300456        1.85332495998361       -0.24596643653388
C            1.29275644648087        1.69468868360618       -0.14607930318739
C            2.10788238642630        2.84992862113628       -0.10844921557759
N            2.71663824324714        3.82071757729282       -0.09794056144368
C            1.82416875408276        0.40542632221130       -0.04238305030195
C            3.13479931125665       -0.06634406937568        0.17468578885966
C            4.29866343404927        0.70289723117677        0.26975626343493
N            5.27171367062607        1.30901724062257        0.34200221501880
C            3.06663456306600       -1.45735606188999        0.31368409451047
C            1.74240460070505       -1.87852560856338        0.15102447788040
C            1.32446668810914       -3.19455380326396        0.33507979832922
N            0.97084300275381       -4.28120233125269        0.48269007874921
C            0.93233869586329       -0.72669097281641       -0.09505246003389
C           -2.37582168605766        1.09614448271237       -0.31621903024131
N           -2.75107512596620        2.28757606934957       -0.81270536179846
H           -4.25806452866758       -1.44113375179294        1.05171090365884
H           -2.78795251862907       -3.02616488860684        0.10914463269344
H           -1.14163517005254       -3.60195502268262       -1.36773826309654
H            0.20931984047982       -2.58935845632430       -1.68630653912217
H           -0.45571156853551        2.86410819061029       -0.21232562520616
H            3.89888237254281       -2.10392088431029        0.52429533167867
H           -2.08870686761264        2.91131991598684       -1.23892101011929
H           -3.70647629320651        2.59270790213225       -0.71563505654520
