33
 energy: -58.886293215834 gnorm: 0.000849179272 xtb: 6.6.1 (8d0f1dd)
N           -4.63903430011650       -1.83087606520298       -0.70452593330624
C           -3.81317275766183       -1.06823538428015       -0.46821520252624
C           -2.83693311009402       -0.08449374144465       -0.19022653756082
C           -1.52531057285261       -0.52681099580759       -0.17943680341904
C           -0.29527349392008        0.12664629482569       -0.02868225857007
C           -0.12920268978059        1.58170290610756        0.02015592331137
C           -1.16970930961495        2.47662482773760        0.27476577584122
C           -2.54023039340469        2.33214142097624        0.36312617900781
C           -3.33952299215167        1.21661760690554        0.10728932414191
N           -4.68015174920897        1.37173778491963        0.15353704031328
C            1.17901161924823        2.13275081358193       -0.10963699447309
N            1.36261477102212        3.49991753900521       -0.19243223910165
C            2.31379659173484        1.31160722477015       -0.08530437917230
C            3.59433613751805        1.88143369272149       -0.20349129531155
N            4.63110873785904        2.36482512128387       -0.31736473066836
C            2.18412621751266       -0.07896552771096        0.03521068682441
C            3.13288767804876       -1.08867214167792        0.09718475089721
C            2.45159820817002       -2.31366994053019        0.14501185793826
N            3.00986831303074       -3.54483744092379        0.17863549518608
C            1.04836630629316       -2.06763789918046        0.10353702902633
C            0.11995386718516       -3.09849067150823        0.17602415056048
N           -0.58786295830290       -4.00613829820220        0.25583158875204
C            0.85539848217041       -0.66866535120937        0.03628342719761
H           -1.43482087961507       -1.59709825405306       -0.33199546050075
H           -0.83994852438205        3.48774684416806        0.48054984610381
H           -3.08805064589045        3.22970114725951        0.62559411223177
H           -5.28940874845672        0.58837450323561       -0.01306134829690
H           -5.08185658865451        2.26192123116328        0.38772079257475
H            2.31687252307009        3.78631252773236       -0.35567237764175
H            0.68576970361002        4.03286715088166       -0.71217756979245
H            4.19877189320670       -0.96106477304328        0.10370354375145
H            2.41833600002980       -4.34220311206319        0.33982147519359
H            3.99260008079694       -3.63513974723947        0.36501918058907
