35
 energy: -62.334254129242 gnorm: 0.000674335605 xtb: 6.6.1 (8d0f1dd)
N            6.05718146356001       -1.35598006126806        0.26682054481692
C            4.97031776087704       -0.98379138602654        0.19869928731077
C            3.63590448154005       -0.54950488271496        0.10649870254677
C            3.41464316689896        0.81520588288502        0.29890136286478
C            2.25542457073300        1.54539367051115        0.21391694673454
C            0.91196864313765        1.15090701946586        0.03699842323750
C           -0.04412686943063        2.18678581372142       -0.03273331185116
C            0.36107127467770        3.53186398840574        0.00309264409000
N            0.60345624390928        4.65700910881388        0.03737569854872
C           -1.44430179688127        1.96563693175442       -0.11747306486324
N           -2.29884092274453        3.02131611734603       -0.21460501602388
C           -1.88339729547256        0.64846470952822       -0.09070883729761
C           -3.18211756668679        0.09294738667830       -0.11779260962617
N           -4.37077849444241        0.75972491371007       -0.27827754450677
C           -3.05507645896509       -1.29233312291990        0.11300069416439
C           -4.10895132925958       -2.19676172783807        0.21273553396834
N           -4.98077260322680       -2.94410830696175        0.29665957656674
C           -1.68220361990482       -1.61845238476477        0.23301435431445
N           -1.22897527929601       -2.88706352535809        0.48228735777906
C           -0.93040235101460       -0.43267569323217        0.05336692344237
C            0.45904033344466       -0.22389945436889       -0.02170136493245
C            1.28341655070012       -1.33835079225885       -0.24974350276907
C            2.65909268177349       -1.52720946911358       -0.22810643129736
N            3.11374019915281       -2.78510592499239       -0.48450543714385
H            4.31146926224428        1.38726091259875        0.50890481932300
H            2.38800896757008        2.61441508993426        0.33300088327832
H           -3.24212701773496        2.88718185489513        0.10865609752900
H           -1.90675273941548        3.94049086744566       -0.07424752442338
H           -4.36720756161118        1.53064441886088       -0.92906591781898
H           -5.17606297275432        0.15628476098198       -0.37125695381275
H           -1.94848273405502       -3.53932117413005        0.76154239334492
H           -0.37168060320932       -2.96223028529875        1.00970201346856
H            0.73750495217446       -2.22981928493112       -0.53154674226619
H            2.48516172998608       -3.47613943077058       -0.85423071795464
H            4.10239722682637       -2.94461916568856       -0.57920770714169
