27
 energy: -47.755644674671 gnorm: 0.000725518968 xtb: 6.6.1 (8d0f1dd)
N            4.92492985574666        1.98906853394756        0.00479947322153
C            4.11892292657197        1.17311376469066        0.00173766517946
C            3.11967054210365        0.16760355324940       -0.00017728079563
C            3.57092792519530       -1.14363743410135       -0.00141914437611
C            2.79797936441175       -2.30093704397347       -0.00297897692450
C            1.42532854205694       -2.42314396544304       -0.00282604096080
C            0.38624220535796       -1.47317273536299       -0.00070856193824
C           -0.90893443088485       -1.98405423075197        0.00055329601631
C           -2.06309064792206       -1.19180531073729        0.00264567359220
C           -3.33261851159565       -1.80717063113478        0.00586806075090
N           -4.34842277021660       -2.33950622808587        0.00879330638987
C           -1.92804566585667        0.19089233690590        0.00379711426362
N           -2.88152032592333        1.12818323394104        0.01123548301562
C           -2.23541635946106        2.30404219051588        0.01537574551451
N           -2.91623359729921        3.46639257267144       -0.01976695082746
C           -0.82226872278958        2.15286512291991        0.01169288570981
C           -0.59105065723052        0.78521663780887        0.00409062795648
C            0.58126168656097       -0.01105251506064        0.00085283825762
C            1.79535209617126        0.64630864055237        0.00002380884893
H            4.64608404890864       -1.27712588872714       -0.00129947499170
H            3.35316041473472       -3.23004032706353       -0.00425960429044
H            1.06945902854498       -3.44791344372072       -0.00407778974339
H           -1.04158788796479       -3.05693483969580       -0.00014878923600
H           -2.44444602665951        4.33112947816199        0.17470401435751
H           -3.91297301618389        3.41762236127819        0.10152951543121
H           -0.12013152506172        2.96368123939031        0.01368538003770
H            1.72555683148462        1.72791499792513       -0.00015972875898
