30
 energy: -49.310405926119 gnorm: 0.000712908882 xtb: 6.6.1 (8d0f1dd)
N           -3.91872821366075       -2.28955870160109       -0.48172947796544
C           -2.84550942384220       -1.52524039558187       -0.14615068339119
C           -3.05383423646101       -0.19453609760113        0.19884195498933
C           -2.13594585311733        0.85455817863798        0.33153434174480
N           -2.65915673071817        2.01363781203283        0.79511957482987
C           -0.74166763018533        0.82841053405966        0.00818268533893
C           -0.02261734183888        2.02914963044189       -0.21608899619667
N           -0.70970618188447        3.26188391163973       -0.40164607054880
C            1.36309978861921        2.06780012260283       -0.26535444856601
C            2.11081591958199        0.91630172477146       -0.08616252983378
C            3.46466767679272        0.59211353568422       -0.05765062562039
C            3.50194998936404       -0.80291271077625        0.07388519032046
N            4.61841140909840       -1.59588899717141        0.08691092114425
N            2.27489024288866       -1.36816790809668        0.12597428410069
C            1.40677875497976       -0.35053259901594        0.04227945402727
C            0.00451299714297       -0.41823629746012        0.03550807957664
C           -0.51329211959472       -1.72658630648983        0.05673486375995
N           -1.70334103236234       -2.22478867012403       -0.11627644387567
H           -3.76181279269217       -3.27832740629754       -0.56734137089940
H           -4.85455764365090       -1.95204299032501       -0.35128700672382
H           -4.09046516196884        0.08525144268643        0.35904507062250
H           -3.62668748398742        2.05908330924825        1.05849330209545
H           -2.06044224509488        2.81802324702149        0.90040934940459
H           -1.43590236237443        3.19559967396780       -1.10553659852375
H           -0.05735210145754        3.99534485204578       -0.65263185727536
H            1.85630650185687        3.01544028420995       -0.44755558628442
H            4.30829645012196        1.25152893083247       -0.12629125426401
H            4.45545987106698       -2.53775154180778        0.40488644360239
H            5.47100871907154       -1.16761123920220        0.40843035663578
H            0.25877922010613       -2.48416580623231        0.16123472877593
