33
 energy: -58.891803613730 gnorm: 0.000779143873 xtb: 6.6.1 (8d0f1dd)
N            5.76375507585101       -1.73496804210248        0.05387289494059
C            4.69350537135773       -1.31507853127994        0.03765079711087
C            3.37445526080279       -0.82059239709113        0.01799141577184
C            3.24259534469917        0.56318633558234        0.06948763329360
C            2.11286904842454        1.36255840266979        0.05709107329528
C            2.43925061801811        2.73966482673378        0.11251246662745
N            2.75669250162318        3.84298129157850        0.15660852824285
C            0.71881112766222        1.03141316606083        0.00393870607064
C           -0.16925246632466        2.09514825634426       -0.04164685829720
C           -1.56477673280326        1.96342659662103       -0.07358888190235
N           -2.34817773421563        3.07245633463282       -0.14599617439765
C           -2.09086224307125        0.67408553707361        0.00648030130604
C           -3.41641179078765        0.19719504549822        0.06560185599530
N           -4.57309965502014        0.93171546711218        0.11461476140245
C           -3.35246399082262       -1.22015690736084        0.03666422450652
C           -4.47027081116083       -2.05462476545771        0.08796351886225
N           -5.41621032388575       -2.70684578134915        0.14481897437317
C           -2.01240146760245       -1.61233890778300       -0.00693639160573
C           -1.20263777939088       -0.46336980324428       -0.01085087844543
C            0.20498287394392       -0.33108192946991       -0.02064922652528
C            0.96084289784890       -1.50435620772430       -0.05856547514039
C            2.32710399030899       -1.77784739992751       -0.05048815775225
N            2.69347952976547       -3.08203462745835       -0.11335182291155
H            4.18298228458209        1.10348930770623        0.12280151388977
H            0.22969365997110        3.09941633535514       -0.06573744830804
H           -3.28031221365053        2.96894842343478       -0.51074621162735
H           -1.88818519304333        3.94643796144560       -0.34640985603393
H           -5.40777623359343        0.38581125891649        0.27771254090809
H           -4.54150466185957        1.79255618998562        0.63910989298860
H           -1.69957172411305       -2.63977293342128       -0.02194967988845
H            0.35971315653995       -2.40386235952170       -0.10243641211751
H            1.99962090788231       -3.80715336597862       -0.13406413747168
H            3.66493307816488       -3.34002400558244       -0.08508208346428
