28
 energy: -50.691199568167 gnorm: 0.000637770496 xtb: 6.6.1 (8d0f1dd)
N           -2.08551785592870        3.50749498586432       -0.25713152122518
C           -2.18869254226594        2.35787304759488       -0.24792063308086
C           -2.28876456408424        0.97550189992652       -0.20078614811771
C           -3.46207826330287        0.22006875404768       -0.34483527759607
N           -3.26042590158611       -1.09728304817006       -0.29666988612141
C           -1.94353132325535       -1.26676061081699       -0.16458648425772
N           -1.30961553871100       -2.42878287993783       -0.11078855453975
C           -0.00412342014350       -2.43152436760260        0.01870786670990
N            0.56749060062747       -3.68898541719558        0.02534357781495
C            0.80338218233725       -1.24973791378404        0.17052560160133
C            2.19461120224280       -1.41710815015955        0.36074097191209
C            3.21545613397911       -0.54029580403960        0.12338872356150
C            3.04109319179285        0.81748491203854       -0.26011068721620
N            4.03132951256638        1.45115927716243       -0.91516440412559
N            2.02380133170653        1.56222313598890        0.10992837160400
C            0.83119133692496        1.22683479846295        0.52921393147777
N            0.20790043324207        2.09948770061233        1.32105983989658
C            0.12112351619460        0.00877701482155        0.15315918748799
C           -1.24447585038851        0.01227942623461       -0.07532737259667
H           -4.45434902873383        0.61349822619862       -0.47852930196355
H           -0.11729410588547       -4.39837211698834       -0.19418292300162
H            1.44689910912147       -3.81176141472888       -0.44856684173175
H            2.49743949509730       -2.41791794493371        0.64070521383334
H            4.23216740973515       -0.90539717599664        0.17559300448401
H            3.90931228749130        2.41595875739271       -1.16753090275830
H            4.86358892277004        0.96452993233179       -1.19240665989269
H           -0.77786818736328        2.00513604490170        1.50542276573874
H            0.63224045831945        2.99903614367435        1.47957363610293
