25
 energy: -44.309385873390 gnorm: 0.000759997185 xtb: 6.6.1 (8d0f1dd)
N           -5.55064291163680       -1.33659589220315        0.08046702905946
C           -4.52368052904366       -0.82809450101440        0.06012642491829
C           -3.25567901772078       -0.19574242064073        0.04137661429445
C           -3.23295663080801        1.19015493282414        0.29583446399735
N           -2.27030197216769        2.01215903815180       -0.01883520218913
C           -1.02835943956272        1.79431318690160       -0.32396461075798
C           -0.22368461672952        0.64504817955493       -0.09506953716580
C           -0.77413550362075       -0.70237064487801       -0.08933060078655
C            0.11511972521745       -1.79400058059678       -0.09119842284177
C            1.48384051786423       -1.64953131617393       -0.00053092259966
C            2.02669995382609       -0.37475274047419        0.04369132990636
C            3.35292668453757        0.09733416291337        0.09897928188394
C            4.49988055845212       -0.69488643466959        0.14482970815064
N            5.43884998969824       -1.35785671196580        0.18112546500186
C            3.30615308327516        1.51121404644302        0.09208236524626
C            1.99286454017850        1.92938419683960        0.02243628646984
C            1.15908574231388        0.78746437152183       -0.01849738183351
C           -2.14551673827232       -1.00756748417139       -0.16037956732183
H           -4.12526291403032        1.65981802801029        0.69546051720554
H           -0.51964308124515        2.66370022915826       -0.72907336751469
H           -0.30518654878733       -2.78779428323914       -0.13982376060389
H            2.12595144227305       -2.51780157876545        0.03202005543730
H            4.17160651488010        2.14727027555225        0.13575475297330
H            1.66716230588415        2.95262289375882        0.02838737116857
H           -2.37151875027557       -2.06100616443729       -0.29044102409866
