28
 energy: -50.695381543269 gnorm: 0.000399356108 xtb: 6.6.1 (8d0f1dd)
N           -0.78623812592771       -3.95938122817044        0.66254211506128
C           -0.81392233246611       -2.82187907172451        0.48402404359869
C           -0.90624070615598       -1.43920745534047        0.26619872749415
C           -2.19887420621029       -0.88987761043430        0.14381707915371
N           -3.29398450704669       -1.66053152397650        0.27872987000346
C           -2.29395072965946        0.48369616677943       -0.14058665462245
C           -3.35584365698892        1.36698663959094       -0.34162157585700
N           -2.92165025357584        2.62456880955926       -0.53805056887160
C           -1.59650437067851        2.60093510852801       -0.45806276977851
C           -1.11267652667515        1.29741908580293       -0.21573544435437
C            0.17490982270349        0.79275957411907       -0.00086594417332
N            1.15819003134908        1.65650852941657        0.14042229342007
C            2.45775568312287        1.45421256360497        0.27508045036761
N            3.13920485965834        2.51632179645980        0.75251771813677
N            3.22017232295599        0.42063138714723       -0.07842041828789
C            2.78014129785520       -0.81289735417426       -0.25544849735113
N            3.72923821606008       -1.68477290763846       -0.66114702601256
C            1.48851980319318       -1.34174420527089       -0.01443794283367
C            0.28444146566741       -0.67286376836778        0.12617019746141
H           -4.20487818034252       -1.26297451490633        0.14003859201215
H           -3.20407204368294       -2.64747078530980        0.45206788512312
H           -4.41114461694231        1.15747813638705       -0.35142672164245
H           -1.01622525597321        3.49558821509358       -0.58172789232363
H            2.64453025787934        3.38013599582244        0.88549348503107
H            4.14265845095610        2.50101254726639        0.73067907046119
H            4.65929915319395       -1.33971950194517       -0.81591235460190
H            3.52473189977357       -2.65822598627946       -0.79031283848751
H            1.43153658065695       -2.42475758123028       -0.03751587262867
