29
 energy: -50.414537827641 gnorm: 0.000428093858 xtb: 6.6.1 (8d0f1dd)
N            2.74820245601204        3.29690744488389        0.26706057081618
C            2.28114214444001        2.24580213817055        0.18647107599631
C            1.79973697286207        0.93002514741848        0.09700696862968
C            2.80166283574947       -0.03770251242732       -0.25611139707813
N            3.97496403827131        0.43507083481388       -0.73573820503959
N            2.75351308164445       -1.34377115008212       -0.14162111457787
C            1.67887157275433       -2.05075312126148        0.23841268948940
N            1.97954386716134       -3.29724381277706        0.67541386393897
N            0.39959424812434       -1.78079671792246        0.17023663383005
C           -0.21230436663729       -0.59939592987463        0.06133326177821
C            0.40807849554482        0.71804710625274        0.22171839320586
C           -0.42214254927382        1.83914606594765        0.40189658366141
C           -1.79514037547422        1.77978813570729        0.29709570471121
C           -2.39529909028210        0.56618544515164       -0.00087425497237
C           -3.74822416562553        0.17441512157858       -0.18335685064484
N           -4.83302930671181        0.97999481606698       -0.09655956109592
C           -3.76820693171237       -1.22275545818071       -0.40545799711120
C           -2.48000876635550       -1.70207124018769       -0.35974646322306
C           -1.59467097731554       -0.61561122215129       -0.11312988824375
H            4.71419752596070       -0.22680163597589       -0.89255781509117
H            4.17302947164578        1.42057680605728       -0.73279457822163
H            1.22440961716983       -3.94543547666962        0.80815957724314
H            2.91949174878685       -3.63066009424322        0.56213279168718
H            0.05080791355464        2.79274345155709        0.58866641075988
H           -2.37897490149303        2.68094242222385        0.42845289944451
H           -5.72888121428095        0.62473456523961       -0.38122630492732
H           -4.70303404860069        1.97631562628578       -0.09324308594040
H           -4.65839693203940       -1.79922202089797       -0.58164523295317
H           -2.17093667218376       -2.72101087909919       -0.49502969787050
