30
 energy: -55.717999556146 gnorm: 0.000955164140 xtb: 6.6.1 (8d0f1dd)
N            5.01935866934218        2.33823731533306        0.01048531241693
C            4.16092532845701        1.57601302065071        0.04085428723903
C            3.13969845469385        0.60213994605666        0.06336987188025
C            1.83455448121125        1.04720490021239        0.14209923213343
C            0.60909650598118        0.35500351509728        0.08573340328764
C            0.47926045563281       -1.09522842146960        0.12321782595518
C            1.55684968668493       -1.94034572421133        0.44865095881512
N            2.84815012456038       -1.81679953680276        0.31054186915563
C            3.56595271873844       -0.76313861692802       -0.03253522998741
N            4.82831814601631       -1.02363154988317       -0.41197903353838
C           -0.80232334883232       -1.69733027630512       -0.00830687464945
N           -0.93676129076567       -3.06163101641051       -0.03216413124388
C           -1.96584513319255       -0.90695655768972       -0.07871129771898
C           -3.21181285824225       -1.55237847457149       -0.22603798376062
N           -4.18277200956419       -2.14863794274232       -0.36473656558698
C           -1.87188862929487        0.48152668047112       -0.01499207616746
C           -2.84186446939886        1.49555047703379       -0.04029618068282
C           -4.22649743365767        1.33592452035456       -0.11139042824308
N           -5.37061908936517        1.23546069367644       -0.16138872354050
C           -2.15719859874687        2.73153183915809        0.02060951230315
C           -0.79428320053433        2.50884814159308        0.08384485580275
C           -0.56349108740686        1.11971408839404        0.06528195111093
H            1.73508687565650        2.12393226891864        0.19551445643405
H            1.29215692049394       -2.91247109345241        0.85713435797367
H            5.14290731748792       -1.97884382620641       -0.40682121673713
H            5.48333896574878       -0.27973145436746       -0.58444146606516
H           -1.86219309383157       -3.41515449725201       -0.21991045605107
H           -0.17902214579469       -3.62743100139672       -0.37066246891015
H           -2.63973009654948        3.69210844112510        0.02123482362549
H           -0.05433713422857        3.28550499881532        0.13606139364916
