26
 energy: -47.235395325541 gnorm: 0.000596236012 xtb: 6.6.1 (8d0f1dd)
N           -3.55064188874745        2.45850645823625        0.23973264248824
C           -3.10400387472072        1.39998930666265        0.15405873929141
C           -2.57698883889573        0.11573494111093        0.05335366703396
C           -3.35009121061694       -1.07389732671995       -0.03426094381153
C           -2.52429513826113       -2.17072404808702       -0.14187960491517
C           -1.19446333227229       -1.70811764145250       -0.14096240907290
N           -0.07397602790278       -2.39296375559830       -0.25732309634944
C            1.07822721623737       -1.74358343370185       -0.18987255037778
N            2.21187430610172       -2.56081760288138       -0.25104694282430
C            1.19655556398888       -0.34452031254502       -0.02746694712963
C            2.47259320184730        0.26684783050396        0.26906871468410
N            3.37405997128131       -0.41986112709946        0.97981945986650
N            2.87777630670079        1.43261950535418       -0.20888701227016
C            2.11300527229535        2.41926741989259       -0.59412493207014
N            0.90572553325719        2.70207342186490       -0.15712401551092
C            0.00883846395340        1.85279527196482        0.24935890546124
C           -0.01106946072274        0.44544272440705        0.03386301989023
C           -1.22121725393508       -0.25340268188709        0.00131277225057
H           -4.42528921269106       -1.08949113040771       -0.01105212578501
H           -2.82570751566699       -3.19664580705501       -0.22350249369265
H            2.94013862686884       -2.23144533669889       -0.87084382294544
H            1.93525133053128       -3.51006169234687       -0.46915733573473
H            4.27275293586475       -0.00186045753742        1.15285579359658
H            3.18626749770380       -1.37421926714648        1.24452451032541
H            2.58458052480033        3.17502866720473       -1.21219035954835
H           -0.87645439759934        2.30057315396287        0.68796484255001
