30
 energy: -54.136480312715 gnorm: 0.000589211614 xtb: 6.6.1 (8d0f1dd)
N           -2.73269959073143        3.66937700788415        0.05942762892749
C           -2.46407729235509        2.55172592682480        0.03840022145141
C           -2.20174251594438        1.16677652010223        0.01061450279939
C           -3.32730176515165        0.33611567330533       -0.00154735847626
C           -3.39690397882748       -1.03052182424557       -0.03045529880318
C           -2.30952242914519       -1.94823204122450       -0.04115470125686
N           -2.65297491760148       -3.26752378227035       -0.09667244997968
N           -1.01553029463529       -1.74275371033968       -0.03039142008337
C           -0.33718220326139       -0.57023319070800       -0.02156528922749
C           -0.82711998911059        0.80299050497343       -0.01045877293807
N            0.00006978501468        1.84569811882583       -0.03189267942312
C            1.32777142999954        1.72977770597834       -0.04101918881843
N            2.01784052844823        2.90496438662293       -0.06024238154886
C            1.92301506691380        0.47197309652260        0.01156163005904
C            3.22634723350194       -0.08294959384790        0.04495354923508
N            4.40932383895550        0.58706305561854        0.06081949668573
N            3.20628443994588       -1.43147225992932        0.01409401872804
C            1.91923106776564       -1.79764836650809       -0.01670012280989
N            1.47402916592001       -3.05621046561805       -0.03034483874470
C            1.04434864692350       -0.66379056995237       -0.00617496930667
H           -4.27540078920526        0.86284664838661        0.01363642350308
H           -4.38214298784308       -1.47765092399548       -0.03928926605080
H           -1.92928219010232       -3.95243557905837        0.03376191188271
H           -3.60314715512980       -3.54535747192961        0.06870369957486
H            1.44286841536848        3.71578885833416       -0.23141606962514
H            2.93857948759803        2.90966558568974       -0.46441123591178
H            5.21328887048164        0.00483969731208        0.23802040859636
H            4.42007659572951        1.49454566917607        0.49742372478273
H            2.10863698659494       -3.82710942404909       -0.13215638099499
H            0.46716878298307       -3.13822231198074       -0.10922838312689
