27
 energy: -46.160542820449 gnorm: 0.000538249354 xtb: 6.6.1 (8d0f1dd)
N           -3.71566474926037        1.61882275309977       -0.38081108871040
C           -2.83960385115144        0.60265339551938       -0.14288306456225
C           -1.47746558147629        0.92201717498487       -0.13115365457862
C           -0.35244890411893        0.10785624771889        0.01348527230651
C           -0.38182542907944       -1.35545844341123        0.03850616871528
C           -1.55619466967411       -2.10960699660890        0.22515495327793
C           -2.87315503973199       -1.70649539666874        0.32797211532190
N           -3.46022620369634       -0.54574281469900        0.13573819309406
N            0.71755191174773       -2.09714749220300       -0.06689527033561
C            1.93174572269129       -1.54890649392975       -0.15163172523788
N            2.95633633029434       -2.40522613505497       -0.33464616222446
C            2.10811019876955       -0.16495394791114       -0.04570846703022
C            3.19471122652278        0.71395780603061       -0.01242166420395
N            2.79908992136677        1.98076964947016        0.13542864491391
C            1.45532536910066        1.97845568992640        0.18740200597842
N            0.77697350371233        3.16307845844958        0.33406597017504
C            0.93287594829832        0.66562332298865        0.06322708322558
H           -3.39852733637861        2.48761088555365       -0.77054668107154
H           -4.68331391107673        1.36593934701400       -0.47929093569638
H           -1.26319721473099        1.96803270870011       -0.31092157102665
H           -1.36958061575476       -3.17092738803047        0.32394448417158
H           -3.59262937620116       -2.48796243282942        0.56217376579151
H            2.76069201109261       -3.39061352240760       -0.32258186880548
H            3.90429686676581       -2.07913685669632       -0.30236960654082
H            4.24327287997047        0.48289465305603       -0.07385353143028
H           -0.04699293969815        3.13123188574066        0.91654910933840
H            1.40055804449668        3.92895658669790        0.54840072804439
