28
 energy: -51.488121896544 gnorm: 0.000554220617 xtb: 6.6.1 (8d0f1dd)
N            4.85277010529374        2.04384026498546       -0.28130912651030
C            4.02011335830774        1.26254825829736       -0.16085240966697
C            3.00277409824479        0.28726530549886       -0.02059813416331
C            3.47256759572274       -1.00866316723115        0.15009946092617
C            2.74751153467593       -2.17336214250793        0.31813968355143
C            1.37751488098131       -2.34531132687316        0.22662269168135
C            0.34515821341459       -1.43654350844181       -0.00684050013696
C           -0.98314727642061       -2.01092768101496       -0.16713365897541
N           -1.14081587961618       -3.36485428946576       -0.31883619846915
N           -2.10537995864278       -1.33658011272151       -0.12637128575692
C           -2.02330814395244       -0.01415212947351        0.00110847849704
C           -3.01581522915838        0.97550115183322        0.06572834473621
C           -4.40055958648295        0.81531903523236        0.09174628757227
N           -5.54418608558550        0.70475043443491        0.11376706289570
C           -2.30906083959255        2.19922253941019        0.09000553411589
N           -0.99527465444370        2.04105927053280        0.04910849592303
C           -0.76289874487498        0.69393716343728        0.00567673422856
C            0.44651879703444        0.00407225918271       -0.00319770793434
C            1.66817874930615        0.78645270266426       -0.01019182005032
N            1.51023221905996        2.10068060240009       -0.03698302747545
H            4.55198406075651       -1.10440269683801        0.17301864323754
H            3.32581826959117       -3.06693692267045        0.51054369410677
H            1.05202575045545       -3.36698526877212        0.37323966052355
H           -0.47027802825055       -3.88133014209609       -0.86236649620191
H           -2.10468166265955       -3.62033406392820       -0.47505106404923
H           -2.73989939584835        3.18359408595968        0.13475492160272
H            2.31541254739657        2.70765779201800       -0.05947488313070
H            0.52506419518674        2.46526502674666       -0.01134561507691
