34
 energy: -62.615620297684 gnorm: 0.000670826225 xtb: 6.6.1 (8d0f1dd)
N           -3.84710203078592       -3.16802520346261       -0.60979071786494
C           -3.10158114063575       -2.30846801024642       -0.43719525696926
C           -2.18944778957845       -1.25865529101049       -0.21290306720275
C           -2.75674329908134       -0.06945086567797        0.31635167317164
N           -3.99419991392379       -0.15822763708918        0.85026735919931
C           -2.16159000843861        1.19692703887153        0.21777019794881
C           -2.98721279550439        2.28104941514597        0.58169377269107
N           -3.67002941366496        3.15449532399220        0.88844321117150
C           -0.87310469648777        1.55181851507930       -0.26788690117643
N           -0.67289339863700        2.81354676835102       -0.62138600971872
C            0.29331251634499        0.69530695316984       -0.25198454683486
C            0.29620773620323       -0.72958560765963       -0.14246602275736
C           -0.84694508230487       -1.53385558244946       -0.50914441985738
N           -0.59696727009954       -2.67351560337711       -1.18137484865041
C            1.50605506794225       -1.40748539229716        0.17748554697042
N            1.51106969339980       -2.78841896022586        0.41131514998287
C            2.72685251047060       -0.73086666520515        0.25333892943565
C            3.89677526114639       -1.42211929893462        0.61693521275830
N            4.83858260405085       -2.00183661469537        0.92984259930447
C            2.77828369441860        0.63856018586610       -0.03327995886029
C            3.78437136009122        1.60137916045471       -0.10931778598516
C            3.13107186883722        2.79446396233044       -0.38858191032422
N            1.80020631138109        2.64893101344491       -0.49156782731732
C            1.53935652464048        1.33948923478684       -0.28052295650631
H           -4.49921353311185       -1.02771488484503        0.81192469218785
H           -4.48950742244766        0.67792646983271        1.11187742919320
H           -1.41806075504186        3.48402687944941       -0.50571397230465
H            0.34666362132946        3.10655830060490       -0.69976093905495
H           -1.35150420901793       -3.29672115477811       -1.41817794635791
H            0.35384003050520       -2.97367226462046       -1.32152154015935
H            0.71919582964164       -3.14364720443767        0.92795905577241
H            2.38897017053879       -3.11447375460397        0.79450640869364
H            4.83787422431725        1.45316669863206        0.02100183879038
H            3.57172348392247        3.76509058798910       -0.53101447806592
