27
 energy: -46.960732441255 gnorm: 0.000556226029 xtb: 6.6.1 (8d0f1dd)
N           -1.92086730022118       -3.31573131267622       -0.06523014065349
C           -1.93697631641246       -2.16185639728048       -0.03612788775661
C           -2.01734905598019       -0.77632314828407       -0.01580126747218
C           -3.24951742287781       -0.06857598016029       -0.02359988686637
N           -4.47173186170589       -0.65553990539693        0.01766673262331
C           -2.99399095484841        1.31203125621363       -0.01936342836731
C           -1.61840631850161        1.49318079704639       -0.01018434948097
N           -0.93047522240814        2.63697036361591       -0.00918433131090
C            0.37174624781768        2.55149433952787       -0.00378263273865
C            1.13721844564042        1.35509121329086        0.00089371421473
C            2.52452233715526        1.50828266099869        0.00349285888871
N            3.53787447226352        0.66956766759186        0.00220789605160
C            3.48733408509701       -0.65648339806072        0.00570853243760
N            4.70548268279835       -1.23346710800942        0.00075579077362
C            2.35796053590013       -1.52180167689460        0.01603569002543
C            1.03753331947045       -1.18328980063578        0.01315312822327
C            0.41597941468949        0.08903327782339        0.00141822163091
C           -0.97187253932650        0.17910589339986       -0.00645567589235
H           -4.53309063855643       -1.64514034096139       -0.15353237004639
H           -5.28188803341714       -0.09630322964837       -0.18392663859990
H           -3.73474134070666        2.08769325923815       -0.02292070943845
H            0.89786724555822        3.49888455147149       -0.00407710970247
H            2.87003125571282        2.54090449618586        0.00453293382096
H            4.82005391780250       -2.23066094857498        0.00339825926511
H            5.51168710884116       -0.63288221607446       -0.00617631497544
H            2.59182939215102       -2.57919085625621        0.02499928712830
H            0.34162152276437       -2.01296263038996        0.01992343391802
