24
 energy: -43.000866123428 gnorm: 0.000964421820 xtb: 6.6.1 (8d0f1dd)
N            4.05715362738495       -0.90676123907679       -0.05347827321504
C            2.89429101686358       -0.24923345357319       -0.03448360561529
N            2.85211888300787        1.09101413309445       -0.02981123843480
C            1.55020586504567        1.43634372542715       -0.01990208311125
N            1.06776552369226        2.66641035502878       -0.01188048755035
C            0.69629221901762        0.28097889242250       -0.01731989626250
C            1.57969163013336       -0.83983204839295       -0.02783812881684
C            1.05125275839830       -2.10898207601911       -0.02907897188193
C           -0.33652147243007       -2.23235005777913       -0.01915589810430
C           -1.21745844927297       -1.15035328486683       -0.00746022222018
N           -2.53917371504754       -1.49429594118224        0.00416591478767
C           -3.54054584608521       -0.67130691858522        0.01880750033205
N           -3.66859262471691        0.65829950921510        0.02351339633876
C           -2.65906603650653        1.50911373834077        0.01386025576903
N           -1.35753831096125        1.38854817719014        0.00177635548980
C           -0.68157794911718        0.19711653049629       -0.00686869268170
H            4.91261919801417       -0.38006692607235       -0.03286147312639
H            4.07904453619893       -1.90956157670802       -0.01963038551577
H            0.04520188287361        2.70450637725498       -0.00497408405942
H            1.66908514505891        3.47165716722556       -0.01511171067865
H            1.67080189687529       -2.99466626955247       -0.03775841359540
H           -0.78817020871660       -3.21236527518319       -0.01963506804384
H           -4.50795473850900       -1.17468483969424        0.02913201207755
H           -2.98605785900125        2.55084337098997        0.01769129971883
