26
 energy: -47.234260200776 gnorm: 0.000820432051 xtb: 6.6.1 (8d0f1dd)
N            2.72113321389175        3.11615730180538       -0.22133206439259
C            1.90117263194623        2.31541083299638       -0.13904020813682
C            0.83238887066763        1.40324171185234       -0.06765943380261
C           -0.48825825278547        1.91731372028968       -0.13490280009872
N           -0.69653663126250        3.23180625615476       -0.32022037975537
C           -1.53911518867212        1.00867894586270        0.04046573425253
C           -2.93215382721406        1.12684146141864        0.08312148313597
N           -3.53541563619557       -0.05689219187317        0.23393306121677
C           -2.57434256257582       -0.99168245427975        0.26687455427029
N           -2.88565369603588       -2.30073751365015        0.40886824606378
C           -1.27505123397934       -0.40811545241901        0.13535985415366
C            0.00655715520638       -0.93140245919587        0.04010586753008
C            0.25630173747517       -2.25201832772210       -0.38807916443030
C            1.48595065343028       -2.84692348735773       -0.62016211170528
N            2.67422927677015       -2.54162177147182       -0.13188333740880
C            2.91634351514323       -1.44931517813240        0.56584623365840
N            2.32997648977380       -0.28883085475953        0.52623695714344
C            1.10749307295890        0.03939953464676        0.13402977389912
H            0.08743363529574        3.85888192209469       -0.39227055683217
H           -1.62830374602148        3.60411177747867       -0.29649072464803
H           -3.52810485713358        2.01951611487119        0.01700213017337
H           -2.18526303653612       -2.92750363494624        0.76890678174288
H           -3.84387897653000       -2.48995222897918        0.65662398797495
H           -0.61198176084040       -2.79174934279446       -0.74613513909717
H            1.48962686023388       -3.75742210798581       -1.21387660651971
H            3.82045226828952       -1.48102121880455        1.16786959991693
