33
 energy: -58.886153597515 gnorm: 0.000788954898 xtb: 6.6.1 (8d0f1dd)
N            5.59489758774600       -0.65676265489046        0.95035871303138
C            4.47934443743950       -0.60605769071417        0.67563933456029
C            3.11115521833386       -0.53473846983079        0.34798005816720
C            2.40812918008609       -1.73546644524720        0.41538032368322
C            1.08497025595626       -2.00092402658262        0.15010993730222
C            0.00032092951044       -1.12993911430997       -0.05030721467663
C           -1.26906794165286       -1.72869902332476       -0.22831195997158
C           -1.37560958082541       -3.11439503137948       -0.43275208649961
N           -1.54633604383288       -4.23594060524423       -0.62793520038992
C           -2.48335886603305       -1.00002958009894       -0.21786317148833
N           -3.67092324989837       -1.63573085043471       -0.41376817886832
C           -2.40030767031363        0.35767283743157        0.07909959509500
C           -3.38584398272172        1.33574219365186        0.33694709860441
N           -4.73860060322766        1.14266259652085        0.41034980138170
C           -2.72548214654493        2.57094526151532        0.52213926538942
C           -1.37033781144322        2.38555390553243        0.39290597839322
C           -1.11487324241002        1.01206331804709        0.11913543192962
C            0.08197594621547        0.31864765803554       -0.05007419263935
C            1.27993343861739        1.05183507184432       -0.32544339552696
C            1.09947374761421        2.31157527457905       -0.93443097461726
N            1.06358887612884        3.30599953531791       -1.51364380921719
C            2.63179745388953        0.72132930454521       -0.11991900191882
N            3.56756000898596        1.67103246131404       -0.35618626771573
H            3.01169441973812       -2.59303420413610        0.69038957059167
H            0.81560094912812       -3.04980733631137        0.18492465533443
H           -4.44535275334911       -1.08532475233989       -0.74498198348365
H           -3.63287711023247       -2.59249081189983       -0.73225916412292
H           -5.05515932845117        0.24110693256447        0.73254410846865
H           -5.26340802696770        1.92207425759051        0.77763347050436
H           -3.21795896574749        3.49759037719712        0.75319894730248
H           -0.62992728503802        3.14827817070292        0.53666106284676
H            4.54283607775864        1.45490579858038       -0.24126318137339
H            3.30068668093493        2.57268475386995       -0.71261180778121
