29
 energy: -54.422951757886 gnorm: 0.000381007959 xtb: 6.6.1 (8d0f1dd)
N            0.60500803057807       -4.26018318889294       -0.38367207572600
C            0.51923212150538       -3.12426244632875       -0.22762888791691
C            0.52175740186763       -1.72462808202916       -0.08722080495343
C            1.78106036291921       -1.06367102675509       -0.13658957115544
N            2.92436118703301       -1.78624206544969       -0.30740194212416
C            1.76950977060857        0.30919952445585        0.06587358041404
C            2.75188168074330        1.33974456230436        0.12802766081259
N            4.09988856629588        1.19200966831776        0.08989896292785
N            2.20395755205383        2.56512769748189        0.19041195628274
C            0.87223628017263        2.39115793465743        0.18741633592541
N           -0.02733532040433        3.37079078668836        0.24240735329435
C            0.51895852074193        1.00661389103256        0.13958461235270
C           -0.72360968937959        0.40070891868924        0.10317645344491
N           -1.80861858584668        1.18159768369742       -0.06245472985623
C           -3.05771042416020        0.75746560801418       -0.15601225292905
N           -3.93104143786882        1.65938487340869       -0.65312833681214
N           -3.64457223882791       -0.36729147808023        0.27987045764847
C           -2.98433909140894       -1.44936708066806        0.62237742003367
N           -1.75170468597719       -1.83916225933593        0.42871624180821
C           -0.70321848933437       -1.06471491729943        0.11786894053050
H            2.81263500582173       -2.75401758031119       -0.56999244176934
H            3.73047356676136       -1.31172814885160       -0.67724004827007
H            4.48918366976873        0.34627707281758        0.47377852019170
H            4.61647534098438        2.03851341434459        0.27324852694029
H            0.25519117857535        4.33412475669341        0.23171425299213
H           -0.99203069438781        3.06993481212102        0.17550619132080
H           -4.89678570405896        1.39699795384176       -0.72718433547514
H           -3.60519669612023        2.53782546437847       -1.01177470287174
H           -3.60884241685507       -2.20975933864246        1.08892087753693
