29
 energy: -50.415083752749 gnorm: 0.000708638402 xtb: 6.6.1 (8d0f1dd)
N           -3.68078764178236       -1.98342084129860        0.08146412652612
C           -3.15291421625699       -0.95625110716196        0.08588442877657
C           -2.52361012690955        0.27955899787886        0.06273250029119
C           -3.19795482569906        1.51246150194820        0.17001949354977
C           -2.28338675447509        2.54931897461934        0.17280238545677
C           -0.99783944964238        1.99772818130778        0.09328560865802
C            0.26383595217583        2.57719603649538        0.11005202381767
C            1.39852983025504        1.79294936507532        0.05405231713755
N            2.67344804936090        2.41017952768194        0.06002077542585
C            1.30074336909112        0.38037945068873       -0.02494000459526
C            2.49452777858170       -0.42542456674482       -0.16824283056710
N            3.51337640508870        0.03891456343634       -0.90561067265596
N            2.71386808078223       -1.55839825436804        0.47779012529529
C            1.79533488808977       -2.38774798177598        0.90113085393021
N            0.61643010240384       -2.56936957883430        0.36962927880983
C           -0.07596337603276       -1.67502463330839       -0.30488810274253
N           -0.94592079346858       -2.13090675407427       -1.20952994253359
C            0.01304359564513       -0.24001338633582       -0.06629339907873
C           -1.12812858961170        0.55727231596433        0.00293943023508
H           -4.26723085393912        1.60881865811588        0.23999871712208
H           -2.51315951995440        3.59617853123113        0.24466953683018
H            0.36097204441975        3.65255354944262        0.18134354080529
H            3.30107134328907        2.01313786574480        0.74913800012881
H            2.58690615391561        3.40748304837042        0.21332709651088
H            3.48627067829340        0.99058382818642       -1.23863858214140
H            4.37189343990430       -0.48583980476137       -0.91899019937651
H            2.10567440370047       -3.10967808717485        1.64716200402813
H           -1.12760614865717       -3.12209748944520       -1.23540213512453
H           -1.65582587636805       -1.51841085920386       -1.57726724031983
