26
 energy: -47.238818103802 gnorm: 0.000683677189 xtb: 6.6.1 (8d0f1dd)
N           -1.06748531021202        3.25528927965199       -0.12196471719010
C           -1.14495963431094        2.11077130540792       -0.01582348904581
C           -1.37953015801790        0.73050197296592        0.09188805273277
C           -2.75150545896279        0.36194725770454       -0.13698338210350
N           -3.56527548964421        1.27338185054951       -0.70336632613904
N           -3.35283602321995       -0.75610948530734        0.22771144428177
C           -2.73354013930666       -1.84369871717190        0.65129560021571
N           -1.53589654368035       -2.27449012691170        0.42126342932245
C           -0.43983196078503       -1.59822594747447        0.05524017459405
C            0.64825612032005       -2.37510270928397       -0.35297888960115
C            1.93503782296994       -1.86890866118424       -0.42575705484443
C            2.14506422732863       -0.55829320337760       -0.05349803990067
C            3.30435474613195        0.26345262602709        0.09206639516935
N            4.58210533683825       -0.07572667995457       -0.12984713197418
N            2.97487198843609        1.50128290656961        0.51103749629317
C            1.64898760458967        1.53956459037341        0.61599350006345
C            1.04315899266839        0.30774316664449        0.27871165402706
C           -0.28142112299509       -0.14982992263506        0.20795522793366
H           -4.54113551601511        1.04338494539094       -0.77795255528580
H           -3.24982460419384        2.21005335838844       -0.89018556025878
H           -3.38121342438293       -2.54569808181521        1.17121884757249
H            0.45750383718369       -3.41968758300605       -0.54225771773288
H            2.75427679674274       -2.51406722712602       -0.71206623148543
H            5.28995911734169        0.62649009350205       -0.00803577855521
H            4.82768662587177       -0.99179196504159       -0.45673598841597
H            1.17429653780396        2.43602541171388        0.96705189212690
