22
 energy: -40.336684701678 gnorm: 0.000913822488 xtb: 6.6.1 (8d0f1dd)
N            5.17974246019448       -1.01962847849692        0.64404077831054
C            4.10909666911439       -0.64135553225619        0.47676405560468
C            2.80059394627216       -0.18071814172316        0.27130106020380
C            2.44065534417285        1.14698682109716       -0.00045856167789
C            1.04601525130841        1.19680467321676       -0.12538999562652
C            0.16878817237309        2.19758714900277       -0.53710353212798
N           -1.14218980119020        2.05720176822545       -0.51613624845901
C           -1.64065112716738        0.89105588589743       -0.12570782483534
N           -2.77667809812577        0.78967829940560        0.47703057242897
C           -3.56385034268998       -0.21909359584988        0.77599044189818
C           -3.66316914612219       -1.40521807823745        0.06273006635431
C           -2.60975255984044       -1.83945532498723       -0.74867154090410
N           -1.36656226488532       -1.45937735167220       -0.62377472300757
C           -0.80819003075881       -0.37750656218009       -0.19015805849619
C            0.54954977608082       -0.15844450739410        0.06111222114779
C            1.64574828079151       -0.98778014207195        0.29461333795020
H            3.11925110918916        1.97362400206412       -0.09745499042104
H            0.52854367670015        3.16327094810922       -0.86878735358703
H           -4.26449985813476       -0.00506020228014        1.57559662001828
H           -4.54320429728583       -2.02308705817045        0.16580641809622
H           -2.75568812030970       -2.66825763628757       -1.43213134005611
H            1.62248606121237       -2.04797427311079        0.46164358548587
