33
 energy: -53.275551665159 gnorm: 0.000898237328 xtb: 6.6.1 (8d0f1dd)
N           -5.15290010950222       -1.35059838828338        0.11547850995801
C           -4.18865818573429       -0.71858170253605        0.06698002350699
C           -3.04147854439669        0.05637922572282       -0.00878967642993
C           -2.99793649124067        1.46059599860465       -0.17987226790408
N           -4.09924332591245        2.27627423567933       -0.22271432187047
C           -1.66228306644125        1.87683892032854       -0.22048350166906
C           -0.83664856652936        0.75419661187249       -0.09197352463375
C           -1.70354256178443       -0.39540602791066        0.04631250948002
C           -1.15762519417128       -1.63934767236619        0.26803859867865
C            0.22099567573933       -1.81681926464945        0.22699677195676
N            0.70856795946371       -3.13758370961104        0.43556143066592
C            1.10646223146053       -0.74453750105081       -0.02201340158344
C            2.47547573375383       -1.02129831131500       -0.37482761536580
N            2.72237102192566       -2.22489421314337       -0.94678494418378
C            3.59485473765259       -0.20483944249617       -0.22640903608644
C            3.71334556449748        1.13111135832983        0.14118433811333
N            4.97521039686526        1.63687029038348        0.28099282638351
C            2.64755579076401        2.03622955508760        0.25456351307604
C            1.31013287938687        1.78963610768702        0.08304724177913
C            0.56821656870072        0.60303446527257       -0.03527278912442
H           -3.97472471844355        3.18713610884296       -0.63329158519448
H           -4.97633285907372        1.82548216416439       -0.43108176708737
H           -1.36210440366973        2.90030026571722       -0.35630806396696
H           -1.79979771331206       -2.48946203634516        0.45956561802147
H           -0.04950798254048       -3.75732788395242        0.69405264566016
H            1.43698260153535       -3.17638062026431        1.13871276158955
H            3.66824602147179       -2.49782011887959       -1.14580902950807
H            1.99073534990727       -2.92060228353775       -0.95606634344222
H            4.53800983210524       -0.69720504474781       -0.44446705378438
H            5.08944673953348        2.55736588995620        0.66520650171283
H            5.75591103066982        1.00860700073215        0.34882135489600
H            2.92947748555065        3.06309788838674        0.45430134990647
H            0.69057555286850        2.67526066402110        0.12626790054967
