25
 energy: -43.502565031782 gnorm: 0.000733047334 xtb: 6.6.1 (8d0f1dd)
N           -0.68862801315705        3.23424003553352        0.52588674879403
C           -0.81626818364970        2.11090931791476        0.31413391532304
C           -1.08765448000352        0.74339144025683        0.08929929795785
C           -2.47170134769324        0.41275569324282        0.16160423935307
N           -3.33116787032526        1.38033709945118        0.55908630225801
C           -3.02940820390801       -0.79867349581379       -0.27264604550041
C           -2.33479727858673       -1.93778790893996       -0.63990697088396
N           -1.11623264592834       -2.28284600820600       -0.32572671595442
C           -0.09122637330382       -1.58097220270907        0.09273138194061
N            0.91750726896029       -2.29822046367321        0.58799049478357
C            2.12706216503322       -1.78389943297779        0.66293558258391
C            2.42856321351064       -0.52692572898474        0.16087416839899
C            3.62239060582420        0.19827114529709        0.00685342864660
C            3.29708199664861        1.46498376262523       -0.47120655106724
C            1.91530986268246        1.57853902738210       -0.59394517298728
C            1.33606221471739        0.35010527900911       -0.21251184604251
C            0.02282912126621       -0.10769179229946       -0.07431952375406
H           -3.00149543559711        2.30471700410517        0.77916789011400
H           -4.32044334656992        1.21035163811107        0.53926258250206
H           -4.10829991513075       -0.82481433194320       -0.35623275511452
H           -2.88615245513296       -2.71808516915533       -1.15591906791100
H            2.88467629191048       -2.42721142830026        1.09384467246334
H            4.60904664485247       -0.16847395109828        0.22199211615175
H            4.00223670411139        2.24149322358966       -0.70603383764594
H            1.39160708536915        2.44184495998259       -0.95839024130942
