27
 energy: -51.758777156534 gnorm: 0.000573719284 xtb: 6.6.1 (8d0f1dd)
N            5.16455757908342       -0.41185285030927        0.19363176444582
C            4.03243543470607       -0.21374782984758        0.15922092181699
C            2.64914040516691        0.04067630264757        0.10250425147465
C            2.26277933944989        1.37140852956518       -0.22587950646173
N            3.13571402433650        2.18046416780832       -0.84491820790637
N            1.14016957763960        1.94708441799093        0.17995039578678
C           -0.00755916482421        1.42481687347777        0.45995487993208
C           -0.48071777340494        0.12503233196105        0.13903633061419
C            0.36144140264688       -1.03144261669151        0.03005622022391
C           -0.24869276191075       -2.25647790140934       -0.30187741278931
N           -1.53567046960222       -2.46059934425594       -0.48310988637949
C           -2.34601544054429       -1.43775941173832       -0.31823837516467
N           -3.68734667188719       -1.45372564452495       -0.40632965270083
C           -4.08283680076297       -0.20911095374857       -0.20652682836353
C           -3.01663502239213        0.69734702270277        0.03622539821859
C           -3.12885626561392        2.06567125123857        0.26363805781927
N           -3.21269165252925        3.19761500116746        0.45629511883354
C           -1.85539365380437       -0.08762719962473       -0.01807391385920
C            1.77105260288584       -1.03362012345348        0.33627618253067
N            2.30602615120845       -2.17965596405811        0.78706533180803
H            2.88616822309179        3.14735369953040       -0.96830888775931
H            4.06565365650917        1.87001796937098       -1.06959221655111
H           -0.72277176248580        2.12149836916129        0.88578867550278
H            0.36264499865749       -3.13050929265449       -0.49190517675657
H           -5.12804021874125        0.04349742403763       -0.23049956933008
H            1.72964520523653       -2.98717416485967        0.94702724456171
H            3.30040275518611       -2.25178148198529        0.93170231705349
