34
 energy: -63.397530414342 gnorm: 0.000717290004 xtb: 6.6.1 (8d0f1dd)
N            5.70168037884623       -1.32054478916405       -0.33796889924991
C            4.60161978976323       -1.01254597248414       -0.22708301214454
C            3.24343768183757       -0.64820141124223       -0.10215339911250
C            2.90576942065384        0.66590279915643       -0.43216151849255
C            1.69302292848482        1.31632892170324       -0.28349785615632
C            1.73447916512973        2.65962675064736       -0.73399572726983
N            1.83339268121230        3.70640722026137       -1.19510774992684
C            0.40021040656251        0.81655969711395        0.08226055582273
C           -0.61028236984964        1.73744529570078        0.38227537728413
C           -0.30725609348436        3.04131619401002        0.81839946067106
N           -0.19186996236509        4.08247706968834        1.29294474189063
C           -1.99550140994543        1.38836440336703        0.36820384440317
N           -2.93429671309464        2.31966793016539        0.69232597709832
C           -2.30957243058200        0.11759203343919       -0.08165381710733
C           -3.55778414289591       -0.50024600348718       -0.38315479312092
N           -4.77423452065380        0.10804542193538       -0.36562763739720
C           -3.31700080510705       -1.83829036333707       -0.69552622806167
C           -1.95057265760622       -2.10481702468498       -0.60747479873503
N           -1.38874297382334       -3.25358459016161       -1.02668416154096
C           -1.27841611662744       -0.88824128839004       -0.20581987052088
C            0.05218656790801       -0.58920429640735        0.03863884288765
C            0.99581266889870       -1.61237149739320        0.42746025644784
C            0.43044554521803       -2.72795524788740        1.07965743265590
N            0.00070502036353       -3.64056249832957        1.63259808567686
C            2.37378094353614       -1.63312261816997        0.38136827549370
H            3.71801423351762        1.27877006188076       -0.80826746443346
H           -3.82242888761989        1.99024421052097        1.03157498120135
H           -2.59649348005704        3.18058846477739        1.09741838839335
H           -5.54023234701891       -0.42200128704511       -0.75128929169435
H           -4.80142788976597        1.09752302155760       -0.55406071465812
H           -4.06365059212147       -2.54969643344531       -0.99541155800650
H           -0.42084386365039       -3.45478421115162       -0.84900795960453
H           -1.99317474061686       -4.04028455425702       -1.19168365485338
H            2.84434930205367       -2.54236905608796        0.74130672596025
