27
 energy: -47.748742000032 gnorm: 0.000916411917 xtb: 6.6.1 (8d0f1dd)
N           -5.12910998045860        0.24615089394419       -0.44376195806229
C           -3.98827751478305        0.34666402751688       -0.35058019518885
C           -2.58782623845440        0.45554541026656       -0.24446723586943
C           -2.03658775816568        1.70620449984298       -0.56079622636716
N           -0.86171542511536        2.17601137035597       -0.28226920696052
C            0.27193549908110        1.57818415795356        0.04642333760836
C            1.30957944177160        2.42631781136063        0.45506761496257
C            2.62451724607275        2.00833012986006        0.50263518024646
C            2.93941528975252        0.71742062316318        0.10652843274832
C            4.16802690259223        0.04849069920986       -0.04173257174997
C            3.90701972892328       -1.24302018772304       -0.49575127520064
C            2.53430009234037       -1.42563883892712       -0.60572684344373
C            1.89121890680551       -0.22301060681583       -0.22211647201898
C            0.54706604032918        0.13252020762828       -0.09833526582498
C           -0.45961373768366       -0.83799513409499        0.10569114175385
C           -0.02198097893471       -2.14410145358189        0.42688195784707
N            0.22245214604107       -3.22408535786851        0.73694221217496
C           -1.87384595068269       -0.69820264949687        0.16484500401827
N           -2.60515044099866       -1.76395303263346        0.55601900158790
H           -2.71071312331777        2.43477908956190       -1.00287331532086
H            1.04795239572349        3.45426557172241        0.65095058163273
H            3.40561240055448        2.70311465648491        0.77593309625508
H            5.13604771147256        0.46803651647612        0.16168018122575
H            4.64986918601354       -1.98365646620058       -0.72868111507589
H            2.05484557237321       -2.31064374125678       -0.97883474350563
H           -3.61010191987407       -1.71354511082981        0.53799453604968
H           -2.16237638077772       -2.63842174771768        0.78315388267833
