32
 energy: -59.967144177762 gnorm: 0.000936222506 xtb: 6.6.1 (8d0f1dd)
N            5.09970002921744        1.49212925643978        0.02438861142961
C            4.19146870435367        0.79359229979581        0.08167052999665
C            3.08591395373730       -0.08801410664841        0.13266777278157
C            3.32208619323195       -1.32300054097216        0.74720026927110
C            2.58909789882913       -2.47108597406910        0.59402313966187
C            1.33944148316284       -2.64207131376008       -0.02670726108991
N            1.03082097548494       -3.90092019002013       -0.39183495038951
C            0.33081838955019       -1.62292123099013       -0.12871323098644
C           -1.01143982887614       -2.06054933725306       -0.11272197592968
C           -2.08839042905689       -1.19389434152095       -0.09669825049073
C           -3.39367523133945       -1.73798577002418       -0.08325914139770
N           -4.42408090350447       -2.23950543777703       -0.08766007754808
C           -1.85303418335314        0.18414412649794       -0.04906965939002
C           -2.71415660593668        1.29039123726230        0.08516752757481
C           -4.11085242474445        1.26483291965982        0.14420423518512
N           -5.25869523529756        1.27134593961729        0.18704586031048
C           -1.91688724076599        2.43850483561809        0.18749931506872
C           -0.57005403064000        2.08159468566299        0.08124732687671
C            0.48097376087114        2.98281527925159        0.24760017301800
N            1.35031203434701        3.72629083812211        0.38007235717334
C           -0.49281216440203        0.66328818014339       -0.08633798705926
C            0.59146708062473       -0.22089738320943       -0.19816847441453
C            1.89887924247475        0.34093290306977       -0.48237067405937
N            1.95869130615849        1.36300396293455       -1.34454895762171
H            4.26763047511408       -1.41201379458787        1.26665661427140
H            3.05363354997899       -3.38441001357641        0.94454884867916
H            0.17362257780508       -4.11997501920224       -0.86723233839457
H            1.68849628686149       -4.64397160705856       -0.23102851928730
H           -1.23445106098975       -3.11375074916170       -0.03481621941447
H           -2.28152177292727        3.43837076556245        0.33640083096544
H            1.11214598726276        1.76830784838552       -1.71063596180729
H            2.80325026916770        1.91090958670810       -1.41881355988454
