26
 energy: -48.026457568712 gnorm: 0.000593520331 xtb: 6.6.1 (8d0f1dd)
N            3.64020170917763       -2.64897072003493        0.32576377520083
C            2.92366459407469       -1.75780967633014        0.24067128747558
C            2.09616640135339       -0.61025211842691        0.16933737369385
C            2.69917019627654        0.59498812757743        0.53334469033298
N            2.29758980999615        1.81699655810198        0.31647049375234
C            1.11489220044882        2.23574708085894       -0.10839149283430
N            1.11425761411725        3.50899852770931       -0.54498567343482
C           -0.13118132162773        1.53440696954427       -0.02610439691802
C           -1.24402865888678        2.39607795380349       -0.08311866107933
N           -2.07027966638423        3.19172649449131       -0.17151542426670
C           -0.33325404442459        0.14186258261114        0.00858935495184
C            0.74414606142891       -0.84630973930120       -0.18580101706968
N            0.49993433111725       -2.08790424454828       -0.57519386607818
C           -0.73285578728401       -2.56419892964007       -0.64273152878000
C           -1.80577736208320       -1.83413442587079       -0.18038702758862
C           -3.17918826327584       -2.12306680817675       -0.01407648030795
C           -3.80773444378065       -0.96351039302588        0.40754474642463
C           -2.87297203092097        0.07219693286766        0.49844073616202
C           -1.60793567111966       -0.43486130314286        0.14539777267798
H            3.69008274227191        0.53633133329113        0.97410959169365
H            1.97901755832806        4.02039019980516       -0.49876174613081
H            0.26048191428942        3.98396278149573       -0.78357044920641
H           -0.82683285071224       -3.56827217205991       -1.03483015514936
H           -3.63798864302321       -3.07867737894731       -0.18552191990898
H           -4.85262903245399       -0.86557927825017        0.63830498246519
H           -3.09711975600184        1.07162576049695        0.81687089412291
