30
 energy: -54.940048500642 gnorm: 0.000966130483 xtb: 6.6.1 (8d0f1dd)
N           -4.86691826806272       -2.08446948647001        0.37976244050272
C           -3.91954899748339       -1.43813441918532        0.28259740088305
C           -2.81972572514383       -0.59485728283364        0.14838546686578
C           -2.90371604545884        0.80705411257182       -0.00195883546198
N           -4.04202518580267        1.53143832689347        0.00561334356240
C           -1.59279996189928        1.34270430883091       -0.13266576152363
C           -1.34730454898560        2.70046050459489       -0.29231541299245
N           -1.19418429506018        3.83621324963333       -0.42703273496776
C           -0.67527849480253        0.27052640426454       -0.07010840307700
C           -1.45404273259259       -0.94468966368450        0.12250909621762
N           -0.90657787824768       -2.14192199073200        0.25735763454242
C            0.40171039131720       -2.22146234957405        0.15250761881787
C            1.27369729277294       -1.14147576989862       -0.06600110701521
C            2.66582902523128       -1.40872877723561       -0.29634752993074
N            3.00734881031579       -2.59254713246455       -0.83307226855687
N            3.69634602333569       -0.66023578259278        0.04897481865892
C            3.76024260573318        0.63160348915535        0.27622343297311
N            4.90727625545733        1.06494257724869        0.83261549438470
C            2.79804390880857        1.60736482446190       -0.11950041164902
C            1.47295116342282        1.37897639690892       -0.32234263473924
C            0.72155134544049        0.18549508818773       -0.14221875913271
H           -4.00968354826413        2.51347729887262       -0.20385467852715
H           -4.92791081174939        1.05755957299728        0.00318510544333
H            0.80096866580843       -3.21812081753384        0.29889267706918
H            2.31110825930388       -3.26364610006068       -1.10143514562048
H            3.98318665602069       -2.80927479745460       -0.93876043328971
H            5.59593671796175        0.39165867103578        1.11862255865922
H            5.05401551963217        2.03934173336605        1.02207907057574
H            3.15569363211658        2.62532502277346       -0.19666518410771
H            0.87377669567555        2.24836844672515       -0.56064500306610
