30
 energy: -54.918792944773 gnorm: 0.000592830612 xtb: 6.6.1 (8d0f1dd)
N           -2.01801436565985       -4.15870436599904        0.18218910792010
C           -1.76117334926032       -3.03980701442508        0.12358426058973
C           -1.45537051647536       -1.66424784295862        0.04678287493345
C           -0.10217697626659       -1.36634279279773       -0.11359655697033
C            0.58286148845774       -0.16292853153922       -0.05152196487126
C            0.01200648754592        1.16570153411919        0.06259939055741
C            0.87591234356933        2.21902142484233        0.38598018192959
N            2.19459187869843        2.16661892104181        0.49710506837766
C            2.77035384693875        1.01487886697445        0.24567793228723
N            4.08506825900518        0.77308718677171        0.24003207712102
C            4.20686864013384       -0.53447209585478       -0.01558184592358
N            5.41989875998609       -1.10400362417453       -0.13568493683793
C            2.95248654108851       -1.19810206280592       -0.18221101038541
C            2.00004286601155       -0.21833818455878       -0.03319337087982
C           -1.36180062065585        1.47769128183096       -0.20261177138960
N           -1.63006630498077        2.74295110885680       -0.57894346546189
C           -2.48141393976217        0.62350924778307       -0.08636187593377
C           -3.73623043600989        1.25460071480108       -0.20863607246675
N           -4.76460188176083        1.76290884748297       -0.30762334563521
C           -2.54999999854799       -0.77511694218284        0.13471948365875
N           -3.76581257510672       -1.30925510430429        0.37698307645506
H            0.53107749291370       -2.24056743392748       -0.20686701259160
H            0.47336216441359        3.19474856265257        0.63348321812706
H            6.22206019964654       -0.54144721515144        0.08614593960043
H            5.51138786113899       -2.10253453700053       -0.17725996275713
H            2.83561015242661       -2.24402417980121       -0.39303798292719
H           -2.58133272267289        3.04328056104734       -0.71721404578314
H           -0.88680861688369        3.40710153873739       -0.70031193365738
H           -3.86788217746417       -2.30781218684138        0.45175848780365
H           -4.58966834296747       -0.73161721781853        0.37480821401093
