27
 energy: -46.967320471211 gnorm: 0.000779485726 xtb: 6.6.1 (8d0f1dd)
N           -5.16058997460972       -0.44915304958035        0.14833528922227
C           -4.09618579751798       -0.01551559715567        0.09683322429662
C           -2.80344858292486        0.49762309596772        0.03715729136001
C           -2.42243407040274        1.84768871255429       -0.03312740992401
N           -1.10365558996561        2.00703163618140       -0.07963011363354
C           -0.55332222618059        0.75989873214823       -0.03405933692019
C           -1.59282681465709       -0.23147865312362        0.03788276417791
C           -1.27307823412869       -1.57787088815597        0.10727523657393
C            0.05751938814538       -1.95836285729682        0.06481656567038
N            0.36945347390925       -3.30724781459736        0.08666935075342
C            1.10612641013059       -0.99515497677425       -0.05352427672497
C            2.39308168622207       -1.49735298241117       -0.37498948550004
N            3.57765693731248       -1.01643213648493       -0.16658600754538
C            3.90251218106083        0.19227187742567        0.26825324192734
C            3.16326748013936        1.34404541196430        0.21004745209165
C            1.77679017598993        1.47928149670589       -0.04576984706923
N            1.30167795922075        2.70986675256709       -0.18831869949067
C            0.80114423475113        0.41229251293886       -0.03212595017845
H           -3.07653500372947        2.70113129343773       -0.05625968270604
H           -2.05194190686524       -2.32406813598706        0.18000033512497
H            1.23036525031754       -3.57940518395479        0.53098931919416
H           -0.40772145523554       -3.91129408534842        0.30403088361076
H            2.41227774011176       -2.48099015040351       -0.83787486652317
H            4.93416103205047        0.26191545180282        0.59828918368906
H            3.69043070243227        2.27412845014432        0.38689266491307
H            0.25576832548687        2.80855229452324       -0.20812377620756
H            1.92362741743655        3.49891502091202       -0.12406118038246
