28
 energy: -50.686062609275 gnorm: 0.000375059794 xtb: 6.6.1 (8d0f1dd)
N           -1.60608267834006        2.88120959740857        0.78714917573208
C           -1.51851916891314        1.77228112590936        0.47618602545323
C           -1.48294053045827        0.43472936292989        0.07691188227173
C           -2.74716801756600       -0.23752379332868        0.18416550521130
N           -3.73956419376310        0.38787289858020        0.85320639429563
N           -3.10573653389711       -1.37734055735609       -0.37614574583216
C           -2.26225666326667       -2.23708991170506       -0.92240217434488
N           -1.00546954430251       -2.43656603605140       -0.70112512588664
C           -0.08282307827135       -1.61588196719794       -0.18299306671257
C            1.10569484835510       -2.19497117174770        0.23037216900561
C            2.27459356056022       -1.45156275105126        0.43052145774826
N            3.41069510249440       -2.04742544731492        0.85676642886190
C            2.22765630282757       -0.08874864493191        0.10960007003975
C            3.21105683235351        0.90515344549534        0.02207127919273
N            2.71180352044281        2.06795979917682       -0.38406719350319
C            1.38135451449841        1.90624941386859       -0.53738510936506
N            0.68424889712211        2.90883975836734       -1.10882147175580
C            0.98239074756265        0.56264185486368       -0.22053410916934
C           -0.21803412919578       -0.14910836362356       -0.18042662433981
H           -3.63087830134788        1.32512598247191        1.19978392120362
H           -4.64797700684469       -0.04166615514809        0.84073999594687
H           -2.73806844785125       -2.97378473346281       -1.56533556018466
H            1.13414296085923       -3.27084907997285        0.31520159533726
H            4.27498101774450       -1.53694545443882        0.83584233713343
H            3.44839735189651       -3.04919241992165        0.92510010733653
H            4.26228238274515        0.82100216171581        0.23513614203377
H           -0.29852133909926        3.02263674702438       -0.91482826886787
H            1.21844069675595        3.75788689424102       -1.21667595014232
