32
 energy: -57.593929623795 gnorm: 0.000706165704 xtb: 6.6.1 (8d0f1dd)
N            2.92915186605938        3.39590098932022        0.01015092606774
C            2.50748734865808        2.32137701414933        0.00327933216576
C            2.06324828401428        0.99253131182341       -0.00109920601424
C            3.10076098243653        0.02520687956575       -0.08474884907762
N            4.37091328203896        0.48053926547122       -0.20089635523251
N            3.03880982572224       -1.29568742768363       -0.03701167063698
C            1.93978138823429       -2.04136468716113        0.05237143296930
N            2.22386940993831       -3.37411766630940        0.11171845856498
N            0.65231785221313       -1.76955945908560        0.03802667971240
C            0.05492768736134       -0.55930771760955        0.00674714099178
C            0.65477409612460        0.76490752106049        0.03761572755224
C           -0.18530737071572        1.87876434276584        0.10083127876900
C           -1.58165244852097        1.83609884211670        0.09140471102995
N           -2.31499524091708        2.99722312781024        0.13910430970403
C           -2.17122819434546        0.57857328823994       -0.02526957827541
C           -3.49042810778206        0.06331146726318       -0.13316075673238
N           -4.65147898424414        0.77079636619164       -0.16855399756898
N           -3.51360791484566       -1.28365151722302       -0.17219737574585
C           -2.23621858579317       -1.68505770683371       -0.11068120645569
N           -1.81828557707173       -2.94782702262328       -0.12712258744281
C           -1.33096360793305       -0.57424427904361       -0.03432264721993
H            5.10646488909300       -0.19873015214403       -0.27054347158254
H            4.57125376955335        1.46350527515988       -0.25311941565734
H            1.49647355389269       -4.01136653989369        0.38153595746367
H            3.18136877515473       -3.62832224134670        0.27652526182026
H            0.27966169373232        2.85393613556320        0.16187943325350
H           -1.80052063814461        3.82466126053737        0.39917774784938
H           -3.23405194241740        2.92981499298070        0.54509346742469
H           -4.61696900340149        1.68737847086365       -0.58494565425251
H           -5.46294201435044        0.21712284118944       -0.39722762476386
H           -2.46350822967740       -3.71028029698053       -0.22631847602220
H           -0.80412279716735       -3.03761383463463       -0.11912508935744
