32
 energy: -59.169063091691 gnorm: 0.000686848060 xtb: 6.6.1 (8d0f1dd)
N            5.58969405530669       -1.05260630256895        0.96477898033319
C            4.51513076521483       -0.72055719173985        0.72539478683182
C            3.23408262243151       -0.25275114592972        0.42506548087921
C            2.03738494379454       -0.97155514407113        0.47184485440102
C            0.97803419370061       -0.11535447125073        0.11647644552092
C            1.55092795578620        1.18836390975455       -0.13859404761394
C            0.74882380122666        2.25680561163678       -0.48112246572422
C           -0.62976198793639        2.09080871972575       -0.45451935405767
C           -1.46915757366309        3.19416569692078       -0.70100363926404
N           -2.12597513400735        4.11128778666773       -0.91634382877577
C           -1.24351561920467        0.85280924705070       -0.10381383774304
N           -2.52342717714652        0.94326562844367        0.17399404472894
C           -3.43306693464128        0.02254130942845        0.44294308594596
N           -4.55126568173048        0.52664685654794        1.01659102888855
C           -3.39567436721316       -1.34011137572859        0.12060108149323
C           -2.27999247500193       -2.08742018113049       -0.23992148732806
N           -2.49845133089574       -3.38106655373827       -0.58133992899436
C           -0.92080010814679       -1.64191648402127       -0.21258156889261
C           -0.00080389702278       -2.65622362955568       -0.54418131051730
N            0.65518124539327       -3.54568512203075       -0.86838042653775
C           -0.40327797799455       -0.34197649155201       -0.01413636851079
C            2.95581611614262        1.08396881938548        0.02622591489916
N            3.87128670186792        2.05449410130281       -0.14209192366337
H            1.96382857901833       -1.99574496321289        0.78313342959400
H            1.15958936006934        3.22905947532528       -0.71732608032042
H           -4.61458530212775        1.52692003842604        1.09838790786258
H           -5.38325881718426       -0.02703037470440        1.10653317291489
H           -4.33729680202105       -1.87295971908525        0.16473436349608
H           -3.43136029755330       -3.75043227393299       -0.57923829052636
H           -1.73334532795677       -3.99202005857816       -0.80864600152292
H            3.59617017967787        2.97741811401343       -0.42481869157169
H            4.84511242641444        1.85315954850515        0.00404220527503
