31
 energy: -54.650912259248 gnorm: 0.000462285487 xtb: 6.6.1 (8d0f1dd)
N           -5.39775292825796        1.01654515633352       -0.13143678917379
C           -4.29068988012719        0.70463646012253       -0.07979410144471
C           -2.95624178388642        0.30994284022745       -0.02934903612816
C           -2.50318511966445       -1.03067130626050       -0.06266006784243
N           -3.31810897911534       -2.12278094908876       -0.11504262798885
C           -1.08812739426898       -1.02085178177516       -0.00297098205517
C           -0.12332278654822       -2.01873160715983        0.06490760601766
N           -0.42760479487592       -3.35096047736104        0.10987991517463
C            1.22370097811642       -1.61395082545243        0.04173893617328
C            1.65865196908634       -0.29941099683086        0.00654471183679
C            3.08272353039556       -0.07374338137833       -0.03434481738108
C            3.91322809811302       -1.21287576576986       -0.06442923948917
N            4.62834504134742       -2.11383465020098       -0.08652274033947
C            3.78180355295796        1.12379831490271       -0.05834861999097
C            3.29241288675640        2.42139600968945       -0.02823690566353
C            1.95417923007458        2.80081658196066        0.03447584157365
N            0.84463195754562        2.11059668929765        0.05399277225078
C            0.66808184525233        0.76699028537149        0.02414466298592
C           -0.65954551058082        0.35427154973829        0.01647342861403
C           -1.83439200699359        1.16914695387248        0.01906021849871
N           -1.80370374086380        2.50042668142501        0.05231883809239
H           -4.29263472941269       -1.92981206843185       -0.29412741046399
H           -2.95770306010888       -2.94787180252928       -0.56683185050338
H           -1.30905584399393       -3.61120223512977        0.52047621267389
H            0.33878880242817       -3.97469849708061        0.31019635837684
H            1.96900802581192       -2.39773122025914        0.06229651095154
H            4.86123373355696        1.02230029281853       -0.10095839998511
H            4.01944925155570        3.22093619363552       -0.04768963001004
H            1.76966499880607        3.87402492500141        0.07080797708198
H           -0.86184165865885        2.89019714479665        0.06817079229477
H           -2.64518164224751        3.04966758411496        0.04670145046299
