32
 energy: -53.570626752224 gnorm: 0.000512787991 xtb: 6.6.1 (8d0f1dd)
N            5.72311119535899       -0.07848695750516       -0.03192719709619
C            4.58023547391979       -0.23404312528115       -0.00987330311822
C            3.19072891613859       -0.39422169137386        0.00721058153826
C            2.70001266801893       -1.71171979618020       -0.01236956523936
C            1.41001994492915       -2.15458935443254       -0.01971306181459
C            0.18847770712659       -1.42273445046050       -0.01075495186499
C           -0.98666594182008       -2.16388111602920       -0.00321602721249
C           -2.27875321690093       -1.61898310068496        0.01280631526067
N           -3.37901183910349       -2.45032156561202        0.02882367479939
C           -2.38429508001194       -0.23628799732599       -0.02379401690406
C           -3.48628514381016        0.66844443288076       -0.03783724698677
N           -4.81278046981958        0.30908317048730       -0.08095907975848
C           -2.99574204456751        1.97178870418226        0.03667336779941
C           -1.59879504119617        1.92725110432663        0.05589953947601
N           -0.71239077781670        2.93476372733842        0.07757521910397
C           -1.18882864600021        0.55388067020175        0.00234697588033
C            0.09878259194121        0.02959120788076        0.00606823755980
N            1.09622540426668        0.93996814481178        0.01982356245713
C            2.40032886273576        0.79197457011642        0.02398820365110
N            3.08280180516507        1.97206086943656        0.07831569214596
H            3.47077392439761       -2.47478139741148       -0.02769850331184
H            1.28426057881889       -3.23086070029475       -0.03784687607695
H           -0.90312281271553       -3.24349224948742        0.00848585779663
H           -4.19565129739227       -2.08210188125409        0.49009676587564
H           -3.18199720316813       -3.41316168562631        0.25709066146744
H           -5.01976041561778       -0.52035079297511       -0.61695091103159
H           -5.44774294541815        1.07289154329965       -0.26138311283026
H           -3.59651441338211        2.86303519916436        0.05451693362954
H            0.24891808039484        2.60603270148422        0.16102613545389
H           -0.99589714836704        3.87441903378548        0.29084634649499
H            4.07953055249344        1.97304114796005       -0.05492514735231
H            2.57493213950204        2.82629061167829       -0.06845185709203
