29
 energy: -51.201771280613 gnorm: 0.000545345191 xtb: 6.6.1 (8d0f1dd)
N            4.38660352792523       -2.12790745078294        0.17131963585914
C            3.46399443522057       -1.44226125102625        0.11862530488586
C            2.38882073982546       -0.55942902105498        0.06391739021083
C            2.51289516883335        0.86043066115916        0.07030867708650
N            3.68036210970272        1.53450555974597        0.10004298136678
C            1.22705732267187        1.43391372292976        0.00307760191426
C            1.01421029744839        2.80684265211891        0.00652700882081
N            0.89483832191733        3.95417908417987        0.01665562691624
C            0.27062172095496        0.37389153509947       -0.03585863336846
C            1.02219215103784       -0.86421917081936       -0.00556629774052
N            0.45477593094104       -2.06139404425474       -0.11061688306868
C           -0.85532390620226       -2.13150803498327       -0.15819820521500
N           -1.35894143692577       -3.40615710773670       -0.25381933542147
C           -1.73993767377042       -0.99338014000908       -0.03829177921808
C           -3.07603409588059       -1.24437348324484        0.20090287103395
C           -4.17779926855764       -0.38616195800106        0.32328531244900
C           -4.23195482660485        0.97160807887311        0.12654134626505
C           -3.16832108651151        1.83916677110280       -0.15630234741505
C           -1.82727807743220        1.55523186463310       -0.20361195538247
C           -1.11743580082735        0.33933873374021       -0.08385632925998
H            4.53785397228407        1.03251844670159        0.24968923233817
H            3.67426620850323        2.53494894044605        0.19551312653599
H           -2.18706078120740       -3.55910912809524       -0.80449041319463
H           -0.63137531441854       -4.09368453187184       -0.38392557396451
H           -3.32451324225427       -2.28878793186626        0.34572211306700
H           -5.11293443073093       -0.87496319770123        0.56537513348336
H           -5.20791164967940        1.43348023879461        0.20710354180557
H           -3.43570765368821        2.87735597299778       -0.30354152391938
H           -1.18335906847494        2.41350994832569       -0.35392072167029
