26
 energy: -47.232622077585 gnorm: 0.000721434547 xtb: 6.6.1 (8d0f1dd)
N            5.34887869022409       -0.24045448208728        0.05665527263564
C            4.19962462878323       -0.29157778296034        0.04427757342398
C            2.79549364658173       -0.32901830053060        0.02782842669992
C            2.18806003962426       -1.59388941427598        0.07895387128479
N            0.94176119221616       -1.95927395294580        0.04442250902983
C           -0.15952009023314       -1.18598083920900       -0.00269035153750
C           -1.34477349181558       -1.90349378634112       -0.04447555829122
C           -2.62312890561829       -1.32508077352450       -0.03824133529762
N           -3.72468565882621       -2.09420580979062       -0.06987213885566
C           -2.69345486274253        0.07710270370483        0.01406998358796
C           -3.73260038918315        1.01418586409686        0.03464053072757
N           -3.26275629139597        2.27189864005111        0.07548323509045
C           -1.93715315324826        2.19764575065903        0.07882291265053
C           -1.48867741289740        0.85636863297032        0.04183874129072
C           -0.20580751591490        0.29806088101363        0.01510204818098
N            0.80673383822089        1.14676421498618       -0.01780614937456
C            2.10866947127409        0.92052087519247       -0.04154189405511
N            2.84623677911983        2.04457700232116       -0.12437959143174
H            2.87503649165853       -2.43554166467709        0.14537557198295
H           -1.25548655273485       -2.97998125238481       -0.06665371231102
H           -4.63634712793298       -1.67404212767992       -0.05422413263238
H           -3.64613590968946       -3.09542108711792       -0.10281795412339
H           -4.79414668810824        0.84003334930767        0.02011158929131
H           -1.33244047107504        3.08396095469700        0.10932504192950
H            2.36117343375801        2.92431093333047       -0.15496575603163
H            3.85121130695540        2.01381729919370       -0.13211306136450
