28
 energy: -45.869863727995 gnorm: 0.000394175584 xtb: 6.6.1 (8d0f1dd)
N            3.99449661231465       -0.42957160161120       -0.12170596740633
C            2.78743121572142        0.23233763043830       -0.14263296078665
C            2.61658678204592        1.62376260115061       -0.23132534394248
C            1.26105307717658        1.92758574288165       -0.18315652226005
N            0.71469295962372        3.18641482377528       -0.23200554133928
C            0.53229089484379        0.70342452627613       -0.06646848528982
C            1.51500535370621       -0.36106978501894       -0.04392985949137
C            1.05462648828444       -1.65656019991875        0.19490377097383
N            1.89312445313378       -2.70553017523274        0.44872857807853
N           -0.23800021020250       -1.95957753301406        0.09495996119520
C           -1.15007064793132       -1.01959617869748       -0.11493349268667
N           -2.30962451367691       -1.45271403998946       -0.57294289144795
C           -3.48938488907387       -0.89167113068592       -0.61395410045889
C           -3.95238569084560        0.23506380523055        0.05133841973665
C           -3.13912597920621        1.23244134640146        0.59379804692066
C           -1.77167403797343        1.35148150688024        0.50619987149589
C           -0.81649131940258        0.40979141424652        0.05790563972415
H            3.98256332852707       -1.35893448303351       -0.51479974501019
H            4.78360699728262        0.12453601052933       -0.41989320469019
H            3.41325051108148        2.33949441534672       -0.33144300994896
H            1.33712716096927        3.91238666368860       -0.55337157687580
H           -0.21993948636827        3.24532071712362       -0.60681114772794
H            2.76493870921996       -2.49935701294454        0.90772952781572
H            1.41983827684077       -3.54789692925649        0.73711034302683
H           -4.20868373287543       -1.46061783352666       -1.19882619289958
H           -5.02253513585675        0.38653587048568        0.09277065552284
H           -3.65640278761649        2.06058548361246        1.06571965276486
H           -1.34431762613984        2.25291349266001        0.92949275560769
