26
 energy: -42.438151504234 gnorm: 0.000787743665 xtb: 6.6.1 (8d0f1dd)
N            0.39146294365862        3.33077862470439       -0.08756916397964
C           -0.15219353293167        2.04878383390707       -0.06630392196788
C           -1.52546805528663        1.90359053022362       -0.11133097508946
C           -2.08541156025719        0.63398747856698       -0.03904152225084
C           -3.38764788239994        0.12460592985754       -0.03759454354854
C           -3.24973954096804       -1.25646209414552        0.02979605949633
N           -1.97128270686901       -1.65266464410913        0.07616082407907
C           -1.21949981007946       -0.52174044680096        0.03176326589580
C            0.17313750149314       -0.41198652316539        0.02781882092019
C            0.94948581831675       -1.62937271615428        0.03378909910868
N            0.26416742850543       -2.76072100580537        0.15286764581389
C            2.34277253114456       -1.73391421345654       -0.19649080999851
C            3.27583002445722       -0.73126373238096       -0.22774503253806
N            3.16384558333826        0.52393766975191        0.18320011658470
C            2.07088890851062        1.20180040365586        0.36631505149541
C            0.71941721278186        0.92298663477693        0.05271113689824
H            1.26710195390413        3.43964595126360       -0.57447161066589
H           -0.27729617257570        4.04983105740931       -0.31925361756156
H           -2.15701717699550        2.77853445443033       -0.18972150244449
H           -4.30531334983315        0.67810160006992       -0.08024934893147
H           -4.03561890332889       -1.99175069487368        0.05384318925892
H           -0.78767809554041       -2.66416960408256        0.17011181171730
H            0.74087340301627       -3.64446845775415        0.08183488268769
H            2.70408820758733       -2.74146752546276       -0.36839451151113
H            4.28845541548146       -0.98935644861382       -0.52305592345759
H            2.25734014196996        2.18104417138740        0.80068969928912
