31
 energy: -53.856265985857 gnorm: 0.000600788946 xtb: 6.6.1 (8d0f1dd)
N            3.35324396491603       -3.50928160108949       -0.71830800570228
C            2.88462078534637       -2.49137172869785       -0.45906504068543
C            2.31979031468870       -1.23601353394419       -0.15554651425566
C            3.21947699161341       -0.18104715704886       -0.09344234744860
C            2.97621097397312        1.12125086250534        0.27128619373719
C            1.75357781551356        1.78684274068949        0.41480948759863
N            1.83224780364373        3.01984446151001        0.96113417350329
C            0.45129132647459        1.31350404285997        0.02977046072631
C           -0.53726041146464        2.27441482988081       -0.32300790554348
N           -0.16784552397937        3.61171258376913       -0.60316244498995
C           -1.88506025820100        1.96925179180521       -0.40999606179767
C           -2.30065244952357        0.68450530315621       -0.12106412465063
N           -3.52505018140997        0.13111994369945       -0.09900213598494
C           -3.28111623644899       -1.15981667443621        0.15609340840647
N           -4.27285460954455       -2.08351778899696        0.20909839004694
N           -1.98633379133256       -1.50331914698206        0.30623068158079
C           -1.31494649977705       -0.33655458219242        0.13865595671327
C            0.06314064834805       -0.07692156106061        0.13058137509137
C            0.92540508943434       -1.22428303668339        0.14745615052237
N            0.35420393449123       -2.40543051287164        0.37398842796082
H            4.25471960135631       -0.44413246209158       -0.27782226748123
H            3.85182163253801        1.73297999083395        0.45384725112567
H            1.01284151386647        3.60542571804851        0.99761362563161
H            2.72949222586790        3.40367653645435        1.19911018360853
H            0.65298657633296        3.68928522402576       -1.19002330418533
H           -0.94129985082888        4.12200509754593       -1.00935022846719
H           -2.60040507009181        2.72605727087094       -0.69609064305392
H           -5.20134124733422       -1.71794619746295        0.33280617007982
H           -4.05530345324306       -2.95468242699577        0.66148395759361
H            0.89731585905791       -3.24727806159939        0.26276142206277
H           -0.68791171158300       -2.41576151900217        0.42868089285705
