32
 energy: -54.366815489699 gnorm: 0.000527721487 xtb: 6.6.1 (8d0f1dd)
N            5.59325001927415       -0.45513339684924       -0.25497304056928
C            4.44490181972205       -0.41266805492176       -0.19483412797478
C            3.04218949818484       -0.34555423536519       -0.11343906765534
C            2.35395004566505       -1.54088262204539       -0.34334800784734
C            1.01316171302466       -1.81668133306345       -0.26356240504754
C           -0.10413767100067       -0.97990190590150       -0.05165417502782
C           -1.35624630092728       -1.61244319013146        0.05782696958290
C           -1.45134060977832       -3.01388855061738        0.05759466142771
N           -1.61703908057017       -4.15342953993173        0.06060178172162
C           -2.58679324304298       -0.90537329015594        0.17163488008533
N           -3.74269494735693       -1.58087869010861        0.35554752968241
C           -2.53778225244532        0.47885717686995        0.07182443030913
C           -3.55516944733613        1.45323529174706        0.05121028432211
C           -2.96647813981249        2.68971102832893       -0.13006065244812
C           -1.57291319051126        2.53368298578246       -0.21309134119241
N           -0.68876672282377        3.57113593552065       -0.43043368853822
C           -1.27020448917295        1.15530534390329       -0.05516980996123
C           -0.04357459749718        0.47149273384719        0.01849714119190
C            1.11881233406619        1.21767860191628        0.25132733287383
C            2.47471073093856        0.90557952483681        0.23865670982335
N            3.34120070159920        1.92140620677329        0.51470768265945
H            2.99275229520499       -2.38544352206589       -0.57627760750435
H            0.75872455980906       -2.86047258452939       -0.40839004732760
H           -4.61471310280646       -1.08540341036743        0.32617033218746
H           -3.75007523998970       -2.58574337678728        0.31151918059703
H           -4.61120330981035        1.27256013790565        0.14056883037753
H           -3.48191357838071        3.62968114730569       -0.21436478212137
H           -1.13974196487997        4.42733422426776       -0.72186212326281
H            0.11872999650780        3.34029397450810       -0.99275084789459
H            0.92277001878575        2.24504435347254        0.53176063578712
H            4.32145428252508        1.72142493675361        0.61800475803239
H            2.99076400423587        2.78155202990247        0.89708987041199
