27
 energy: -50.984625973551 gnorm: 0.000835443203 xtb: 6.6.1 (8d0f1dd)
N            4.80329688597130       -0.93917373114462       -0.30015361247904
C            3.70814278771989       -0.59726098610919       -0.20640833217127
C            2.37589225130599       -0.16245001425553       -0.08738080299008
C            2.20703376957918        1.21290609646510        0.26839934825015
N            3.26299109741873        1.85319517948736        0.80268533961901
N            1.16327886952935        1.97968279275637        0.04081103055293
C           -0.07260555201198        1.63934094469920       -0.27778963705385
N           -0.87791625506014        2.61293598178650       -0.67761123919653
C           -0.69385032686225        0.33793324319788       -0.09577263285800
C           -0.03386848486551       -0.91804297046526       -0.00837841679286
C           -0.82329925364375       -2.05398076277533        0.30175372435703
N           -2.12411527453528       -2.09270184854363        0.44939783045224
C           -2.77439633062416       -0.95291682962811        0.25642716193544
N           -4.09288606995975       -0.70677452925284        0.25820159314488
C           -4.17083461070991        0.59781488473593        0.01714897900641
N           -3.01847402402909        1.25957034320254       -0.15342169293281
C           -2.08129389313367        0.29554001108772       -0.00778234999238
C            1.36647225616991       -1.11520456892839       -0.28602231977575
N            1.74491442617436       -2.33088252294885       -0.72113306676029
H            3.18617446244133        2.84210941084487        0.96555306495350
H            4.14680272252275        1.39006817752497        0.92619691932374
H           -0.51637577907784        3.55243653865345       -0.70680874487652
H           -1.89874026906873        2.41057758036940       -0.64523630819703
H           -0.33609971308282       -3.00102863252860        0.50307743872724
H           -5.11730983193289        1.10246984648259       -0.05411062252368
H            2.72129552506772       -2.53653707459639       -0.85682565822207
H            1.06686943099719       -3.05679946131712       -0.87042179350046
