23
 energy: -40.071325731031 gnorm: 0.000305504147 xtb: 6.6.1 (8d0f1dd)
N           -4.05932950777205        2.30810477475567        0.00080379273724
C           -3.29422249527030        1.45526693044258        0.00101406203197
C           -2.36469843250505        0.38104408331242        0.00044336552541
C           -2.92530763756233       -0.90291925048303        0.00026459397594
C           -2.26190117887640       -2.11322883372613       -0.00009283117536
C           -0.89526402048103       -2.36735242548035       -0.00034912650411
C            0.20978886248975       -1.51528571675061       -0.00034938735804
C            1.48253452406074       -2.12962023007699       -0.00065499391780
C            2.67451179105459       -1.44108412795923       -0.00069961062233
C            2.63476315530852       -0.05049822755592       -0.00043200795244
N            3.59922445441979        0.87817754281291       -0.00040488407708
C            2.92400985390736        2.03477740091988       -0.00008565161984
N            1.59436874502780        1.95776423288216        0.00010176398152
C            1.35266328251390        0.63094181938498       -0.00011456746286
C            0.13108503076301       -0.05100214222391       -0.00006116448287
C           -1.02032905257561        0.73644088533727        0.00028552362611
H           -4.00832412726764       -0.94051887863881        0.00045468245656
H           -2.89485697618776       -2.99171361520759       -0.00015497881073
H           -0.64075401250069       -3.42185495578666       -0.00059615926491
H            1.51108775538527       -3.21012114194412       -0.00087176325829
H            3.61954300207747       -1.96238328466878       -0.00094534268183
H            3.43247916324091        2.98108455459142        0.00001403342270
H           -0.80489937765029        1.80061338136285        0.00048785393103
