33
 energy: -58.088754334594 gnorm: 0.000900181908 xtb: 6.6.1 (8d0f1dd)
N           -5.39186536146907       -1.24762735071365       -0.82091457987235
C           -4.39135970504513       -0.73080650401517       -0.58072811093494
C           -3.16367798979299       -0.13599785772163       -0.29285182038361
C           -2.94958894578182        1.20401683480690        0.06790467533502
C           -1.58236147276389        1.38936082551253        0.22266890763178
C           -0.80469286843411        2.52339984459553        0.52055535717283
N           -1.35800686919983        3.69299630030079        0.90891556730084
N            0.51291076962003        2.49920013158882        0.39815838214562
C            1.16878992070492        1.36417448118392        0.11563492398452
C            2.50872920793648        1.57642493789430       -0.19327763962714
C            3.53555727401094        0.69743128653866       -0.54473515804801
N            4.71006519882918        1.27030987130090       -0.94704348334507
C            3.52658094465935       -0.69134416094587       -0.42275532043825
C            2.52540314349907       -1.51348152104124        0.08107500478388
N            2.85404951779709       -2.83110257454462        0.24832910825559
C            1.17863759277307       -1.15503521238397        0.34128292332112
C            0.42466230373199       -2.15765854837963        0.96494424478620
N           -0.14373021693324       -2.99401814941189        1.52178571943469
C            0.49076160467625        0.06798640962802        0.10970587234763
C           -0.90365389509268        0.12830503714750        0.00540502773756
C           -1.92367428134873       -0.81826772622259       -0.33181905857085
N           -1.81270975893240       -2.07819022982281       -0.82974870276738
H           -3.72483875463642        1.94044648101719        0.17899850129512
H           -0.75809209746423        4.49411705640805        0.99264269984041
H           -2.35222313779893        3.81769285272453        0.87110421708696
H            2.76698573557992        2.62805474127462       -0.21706617734015
H            5.42364495239052        0.69414006407053       -1.35624627788578
H            4.71416925978375        2.24614612009293       -1.18495542152710
H            4.45534866470539       -1.19190050319566       -0.67166416032323
H            2.22123087873459       -3.43231554268209        0.74915731353983
H            3.82611902778780       -3.08594085240409        0.25696036971888
H           -1.03812325804465       -2.65994136529524       -0.55836605169110
H           -2.68850040268697       -2.56385397180652       -0.95654189586658
