26
 energy: -48.020235437281 gnorm: 0.000529244993 xtb: 6.6.1 (8d0f1dd)
N            3.48137735943993        2.44719956757362        0.05844651090762
C            2.75138904328116        1.56040872841917        0.05062037775822
C            1.97360908098487        0.37135590315159        0.02810566599188
C            2.71260407636013       -0.82962899467789       -0.06278123410637
N            4.05422503573822       -0.73569247736204       -0.17478335253107
C            2.15902164158632       -2.11998380700787       -0.01907969843877
C            0.83913013699182       -2.48449577004425        0.07833908267949
C           -0.33300314828298       -1.71959763560212        0.09431910687452
C           -1.47213185065587       -2.55370370533487        0.21201263848278
N           -2.31183382449663       -3.32604582186856        0.33692377138722
C           -0.51213050965909       -0.31631477226747        0.03005713181995
C            0.58967612630998        0.64179322973768        0.08486553254414
N            0.39189176461424        1.96634736390480        0.18462755283310
C           -0.81267750435404        2.49260663325135        0.17077031580375
C           -1.93819104881767        1.70682434198629        0.01402542196424
C           -3.31921374012467        1.94167906180230       -0.10454997019960
N           -3.99035757126440        0.79884361353175       -0.25252280782214
C           -3.11115433546738       -0.20340513839948       -0.21985931409383
C           -1.78605111564375        0.26640968909286       -0.05636772806833
H            4.62135125728992       -1.56382892710019       -0.20929626976952
H            4.50173582067407        0.16585806434887       -0.17919844544599
H            2.87650296730552       -2.93022746025920       -0.05259384268531
H            0.66294705075367       -3.55343762707048        0.13431771339798
H           -0.85810171976152        3.56931727597436        0.27108705090826
H           -3.82878195655680        2.88715401034069       -0.09593230564273
H           -3.45778256014506       -1.21134606942078       -0.33556107154945
