33
 energy: -58.101865216660 gnorm: 0.000691485295 xtb: 6.6.1 (8d0f1dd)
N           -5.47529587051990       -2.32571712558424       -0.19584775768983
C           -4.58964638484754       -1.59179273365057       -0.14479327979836
C           -3.49400098344821       -0.73259772445621       -0.08551354368899
C           -3.52737553571758        0.67292499052000       -0.03834635234343
C           -2.21604029399535        1.15046753289719        0.00005663525730
C           -1.66762104510530        2.44297762229012        0.05350019626964
N           -2.45445308933007        3.55019094399256        0.04999413358846
C           -0.27937340086557        2.55391769347871        0.05387754248090
C            0.60952192526417        1.47424929275700        0.01209801539012
C            1.97769857476852        1.77823831085232       -0.04828415992705
C            3.10500095178820        0.96820177662313       -0.09606062965942
N            4.30798221065425        1.59285571284039       -0.22759114615658
C            3.13428330211029       -0.44859732407312       -0.02495039613044
C            4.39427399933929       -1.05845714630196       -0.01431430079688
N            5.43113457728065       -1.56365325587627        0.01007677935618
C            2.01133503051635       -1.31289031757338        0.06609757223190
N            2.27787229111032       -2.64628711567538        0.14204228452816
N            0.72296840543984       -1.04570439757231        0.04980612610728
C            0.06142232621219        0.11721613760544        0.00989557690900
C           -1.32833007711877        0.02341020607081       -0.01663462706448
C           -2.14145395880782       -1.14937571999160       -0.06924770060987
N           -1.65259724001367       -2.39588720506734       -0.08501902438315
H           -4.43085950559660        1.25652204975868       -0.03828282261319
H           -3.44232860148233        3.44654163858690        0.19463852113019
H           -2.04255743032965        4.44754414620709        0.23441163743774
H            0.14215209867885        3.55075220855204        0.07409109696688
H            2.19854627952716        2.84030275376631       -0.08183819544396
H            4.36011184132205        2.59327674891285       -0.16932940469800
H            5.15913229343124        1.06149944471869       -0.16794838492351
H            1.51970110801495       -3.27667626229506        0.33239736390249
H            3.22219389136462       -2.96833546369646        0.26322367929185
H           -2.25441352233213       -3.19053365187600       -0.21181314291407
H           -0.64074392071241       -2.44524210884039       -0.12499424340705
