31
 energy: -53.852791238821 gnorm: 0.000963571145 xtb: 6.6.1 (8d0f1dd)
N            0.12903487966810        3.14746835720144        1.11491660861067
C            0.52102875079231        2.13843380387052        0.70369962923013
C            1.05661187864618        0.94356370009023        0.23625425164865
C            2.46073158658204        0.99331173124181        0.01074348828378
N            3.05346480279552        2.21579390238465        0.05366514240461
N            3.31004811198742        0.03665470991477       -0.31057745910676
C            3.07411436902106       -1.27407720828153       -0.25755752699450
N            4.20060638394435       -2.00847159246668       -0.50173067899271
C            1.91861620960300       -1.96796905356224        0.08774921489604
C            0.59116712683971       -1.53333276560907        0.23174011519894
C           -0.36436452701386       -2.53669506816927        0.49393689860084
C           -1.71849941481304       -2.30096327337795        0.49673907148634
C           -2.15657456338958       -1.03087924927077        0.17207812550171
C           -3.44595506503020       -0.47984622813530       -0.04990500088368
N           -4.63182643696216       -1.11796214361745        0.04029680254678
N           -3.37113890122277        0.79675828272423       -0.44834042575179
C           -2.07181734630560        1.14054107243963       -0.46143974828748
N           -1.75792282506590        2.33682877335561       -0.99402332426726
C           -1.22412724052413        0.04275942071658       -0.05230784896671
C            0.15074934981202       -0.15899065825926        0.09797367931669
H            4.05601011097719        2.23631261560998       -0.00595340670995
H            2.55964066235299        3.01685666278134        0.40579606293975
H            4.98683457575401       -1.50658971987318       -0.87685118137298
H            4.12206387930680       -2.98854618943838       -0.70533238660353
H            2.05345755023626       -3.04075249202895        0.16796766893350
H           -0.00119526113599       -3.53606959471514        0.68611856490987
H           -2.41506692272549       -3.10206377242781        0.70120232829089
H           -5.46031983969768       -0.55100501538162       -0.01468218894449
H           -4.68082660330231       -1.98741129806660        0.54082595644606
H           -2.56823294392845        2.90666316965034       -1.18726208028672
H           -0.93415929100172        2.83041882240072       -0.68528741857692
