30
 energy: -50.112455514113 gnorm: 0.000808526242 xtb: 6.6.1 (8d0f1dd)
N            4.38267735344349       -1.82268657271031        0.01488890443348
C            3.35118010271288       -1.31446821563109       -0.01338500232665
C            2.07750882591130       -0.72056735165320       -0.03086923840641
C            0.94404248836848       -1.51067613729791       -0.17283274574706
N            1.10181942793511       -2.87781102028734       -0.34993973089080
C           -0.36497625226421       -0.91733889976104       -0.17389190609838
C           -1.46805901029527       -1.77680949646846       -0.26327925323553
N           -2.71100429850638       -1.62302541762183        0.11816630036731
C           -3.36603400077075       -0.50157461625078        0.35897835004596
N           -4.54434797863424       -0.65362790095389        1.00930978535407
C           -3.01393662109188        0.76682353696657       -0.13978906746506
C           -1.74058635382484        1.18922324323040       -0.45989516586672
N           -1.61155239597274        2.37507227286648       -1.08923111932288
C           -0.48921956657375        0.52144283202288       -0.11777802586438
C            0.64004879229857        1.28992672674101        0.10684531666447
C            0.85161723771421        2.68114553739567        0.34635539153620
C            2.19793459073421        2.88208293228616        0.53038974341083
C            2.89344661766432        1.65961975348360        0.38668474859975
C            1.95998434911543        0.67403317500792        0.15881309797676
H            0.41767111337689       -3.48201915087302        0.07412447188994
H            2.05084905754936       -3.19583605668625       -0.21075370781653
H           -1.27951758537793       -2.79466590213784       -0.58951622132212
H           -5.19640872895162        0.10618038800184        1.07411045037624
H           -4.85303318763189       -1.58708853082942        1.21546897915159
H           -3.81895131582627        1.47774250716213       -0.28467330340112
H           -0.69454141788815        2.71128152079285       -1.33005125259955
H           -2.42336662436890        2.90504115546815       -1.35033360465096
H            0.09217590421122        3.43116402369520        0.47859131478615
H            2.66157287269713        3.82773508997689        0.75186927632013
H            3.95571019444899        1.52367009845978        0.46782036179494
