25
 energy: -43.507190969863 gnorm: 0.000760101412 xtb: 6.6.1 (8d0f1dd)
N            2.82338211245527        3.35297869643650        0.00222299364374
C            2.06148114190648        2.49569491415241       -0.00036105650083
C            1.09304507802636        1.46999793799066       -0.00062024574072
C           -0.26934847383261        1.80134999563272       -0.00022812660455
C           -1.28983676658264        0.85917612834569        0.00048678477445
C           -2.61223069336900        1.37240036939761        0.00254826219908
N           -3.79925002136557        0.83865467687585       -0.00004324492799
C           -4.09609127750781       -0.46069743983944       -0.00479572315924
C           -3.27740083040725       -1.56813089091285       -0.00354807700530
C           -1.87870822332548       -1.60408460569332        0.00022721947416
C           -0.95375092302508       -0.57380285707318        0.00219393121620
C            0.42227426068669       -0.90315670202520        0.00610899814756
C            1.12602855342424       -2.09787659118737        0.01588635333658
C            2.50042368538812       -1.73369483533014        0.01639806257083
N            3.55097061044350       -2.57935998027450       -0.02131107469931
N            2.68478089169496       -0.40642315046396        0.00850244921405
C            1.45850202871631        0.13024752353436        0.00190025768860
H           -0.53102498804929        2.85020466187954       -0.00095092128051
H           -2.66142137054911        2.46078422305321        0.00675050292801
H           -5.16834979154919       -0.63444639300745       -0.00929474016380
H           -3.77448226707089       -2.52967035053569       -0.00631854685407
H           -1.45017185828779       -2.59856189300687        0.00013025889556
H            0.75776531441411       -3.10533893954585        0.02118024931302
H            4.46374828871728       -2.17800859867828        0.10734507485834
H            3.41753100694835       -3.55082305682447        0.19548947007615
