26
 energy: -42.443651731671 gnorm: 0.000376884622 xtb: 6.6.1 (8d0f1dd)
N            4.06894662499485        1.22981597378917        0.57400108844736
C            2.84691679503963        0.82826579728709        0.14991144381012
C            1.89744928278980        1.81391562643490       -0.20193736010309
C            0.55572173915867        1.60871840922297       -0.37906597795138
C           -0.22956734097653        0.45653624826630       -0.16032699969377
C            0.27308662918063       -0.87691239700400        0.02680645725468
C           -0.60203386543068       -1.91705413001998        0.35977714874287
C           -1.96886660897946       -1.73680581256308        0.49584036685593
C           -2.50678971234208       -0.49405192674517        0.22859240709383
N           -3.79539937148958       -0.10474623576581        0.25325563879586
C           -3.77998675580120        1.19085858537068       -0.05895439655037
C           -2.49770451381501        1.69852187808556       -0.29165505218381
C           -1.63025566692944        0.61953561329963       -0.12037919028548
C            1.65366564884288       -1.20151772175648       -0.23822362473836
N            1.93129486517914       -2.44922455271729       -0.67339050859119
N            2.72539598609697       -0.47364821095798       -0.02327874670890
H            4.73192335621034        0.53071506407183        0.85684862610939
H            4.24968730173847        2.19489409389864        0.77840812300491
H            2.27210927633676        2.82505528792029       -0.29408910615283
H           -0.02076073794109        2.49216903860077       -0.62180922492261
H           -0.19260738657179       -2.89689413533545        0.56407299547625
H           -2.60659247447749       -2.55847181388122        0.78438055778194
H           -4.70480192668725        1.74052179201238       -0.11235884305246
H           -2.26569811941782        2.71431730865716       -0.55258443069883
H            2.88860092597934       -2.67749037373425       -0.87709754992570
H            1.19739656861238       -3.07337828933707       -0.95303041521405
