27
 energy: -47.756151476929 gnorm: 0.000395045157 xtb: 6.6.1 (8d0f1dd)
N           -5.31458031830830       -0.29872787021039       -0.17757406058561
C           -4.17018164692836       -0.39215091207699       -0.15015026837547
C           -2.76217499776024       -0.48289231919079       -0.11924250563986
C           -2.19145235280687       -1.69859316322138       -0.51911086757830
N           -1.02165370847329       -2.13882080340855       -0.15163510937470
C            0.02639420323286       -1.50803463249899        0.27752297267224
C            0.35558395691880       -0.14144521085532        0.07807541736582
C           -0.64260375408343        0.89860617522120        0.03490569660577
C           -0.22788873919928        2.22617793092587       -0.13924948021618
C            1.10062124400754        2.58745730945030       -0.28688584639822
C            2.08495890849366        1.62493415309137       -0.18710086658469
C            3.49113177355653        1.68669115899247       -0.24694186984271
C            3.98123299928533        0.40665575819377       -0.11033616543790
C            2.90555099615342       -0.50343496770848        0.04255068868932
C            3.07312190162805       -1.87942349723730        0.18062505421226
N            3.24452418934382       -3.01239431054987        0.29700545345983
C            1.70417892070622        0.23727033394613        0.00896903392693
C           -2.04438082497087        0.66621482874425        0.28785989334732
N           -2.76087638029693        1.66980039450697        0.82700714176689
H           -2.81020437848340       -2.41437785164941       -1.04744689378161
H            0.78776270289630       -2.15002276709014        0.70610740538583
H           -0.97284013095167        3.00383263458308       -0.22892687313759
H            1.35820141240247        3.62088340471689       -0.46852684539506
H            4.07152525750746        2.58047293863880       -0.37826323559209
H            5.01665472802045        0.11673072146511       -0.11477563462414
H           -2.31595158163052        2.51719404990329        1.13170252966960
H           -3.75790719785992        1.57481919371777        0.93462104336257
