25
 energy: -42.705962522585 gnorm: 0.000762356295 xtb: 6.6.1 (8d0f1dd)
N           -4.63382468745150       -0.83701403831562        0.09388826868687
C           -3.36504303595449       -0.33831638554494        0.05762376520637
C           -3.01144486669507        0.98932683092524       -0.17151414325873
C           -1.61599726397108        1.05548714845567       -0.19537747423342
N           -0.83443318238299        2.09437563907585       -0.40527883531879
C            0.47493269406772        1.90000433282319       -0.32214327440622
C            1.11047856701695        0.67914834392461       -0.10593574819209
C            2.53052901920178        0.63258011682142        0.12895113655748
N            3.13113406341519        1.70804927223686        0.66730661896014
N            3.35106354936020       -0.33821343776068       -0.23566041271454
C            3.02033360113247       -1.58063495557510       -0.49211896792984
N            1.99941589591501       -2.27341473955155       -0.04800140125517
C            0.83282314731103       -1.78605662587995        0.31134391680936
C            0.29500961253985       -0.51397114762073        0.05741539640174
C           -1.09695194102489       -0.30745953102917        0.05767070756195
C           -2.19207839798533       -1.13425575978351        0.19079965137099
H           -4.76866014101053       -1.75244536877382        0.48802313403117
H           -5.38985238772286       -0.18403128215447        0.21021969725182
H           -3.68365008699415        1.81336108523231       -0.30896342648052
H            1.06737782659321        2.79317322978279       -0.48811222833504
H            4.13239146079238        1.70051952573939        0.76100655813245
H            2.60768205548694        2.53127110376127        0.90557838998601
H            3.77361979894056       -2.15542806151817       -1.02308101567214
H            0.16542716601224       -2.52670873168874        0.74080733404873
H           -2.19559418929274       -2.19725951708204        0.35125579939154
