29
 energy: -50.402769105751 gnorm: 0.000586596875 xtb: 6.6.1 (8d0f1dd)
N            3.90564411485748        2.70820553073837        0.17592728586233
C            3.08035074033973        1.90849831006807        0.14488482371894
C            2.12174253716320        0.87829508067242        0.09415940049163
C            0.78950390391122        1.19553769849250        0.26807680758199
C           -0.36027038932866        0.40277467099586        0.12131271322651
C           -0.42310483597882       -1.03466805331100        0.01896925728815
C           -1.65574353872903       -1.66421115471012       -0.25533225718147
N           -1.72552865670575       -3.06510199924131       -0.40247885648232
C           -2.84138037231536       -0.93879611965738       -0.35746962438538
C           -2.84325010242689        0.42522682232307       -0.15425234607973
C           -3.80492931016163        1.44724161603235       -0.15102500319082
C           -3.09647358352139        2.61382273736649        0.08307656969941
N           -1.76700282568050        2.42181534167169        0.22487812285733
C           -1.57873300340249        1.10726016451952        0.09349396457169
C            0.73643572031235       -1.81504661423205        0.36744400849138
N            0.55432155256451       -2.98758457209897        0.99987209544183
N            1.99786752548313       -1.55608716392802        0.08527542670815
C            2.61539674908517       -0.43614816126559       -0.19857843101433
N            3.85115434715876       -0.55761897649327       -0.72242410466856
H            0.55788804091952        2.24043282277470        0.44218637346291
H           -2.62407955805620       -3.35694207301035       -0.76469151097174
H           -0.97283635204573       -3.45815960910504       -0.95237806774138
H           -3.76138814597945       -1.46580479196547       -0.57865553291240
H           -4.86269038354835        1.34944980364009       -0.30098887482037
H           -3.49355131802030        3.61142339175015        0.15999289162644
H            1.36219762789294       -3.52549104272574        1.25989268233343
H           -0.37710656827768       -3.31212566371282        1.20143739746088
H            4.43541743476116        0.25302205516095       -0.83511011229654
H            4.23608876432862       -1.47630577084845       -0.85225548327952
