29
 energy: -50.406735402595 gnorm: 0.000959804845 xtb: 6.6.1 (8d0f1dd)
N            5.63488673394323       -0.96038396469242       -0.04374985369710
C            4.50776517197826       -0.72886196144324       -0.02818304910550
C            3.13224378298771       -0.43364464156243       -0.01698917032746
C            2.27388787751933       -1.53589846263569       -0.08221868434824
C            0.90350826105811       -1.59346670184161       -0.08077493528085
C           -0.06449808323844       -0.57319459020759       -0.03688536752676
C            0.20820657925233        0.85793558013976       -0.01693243235069
C            1.47722796951837        1.44893112033975        0.03973794943407
C            2.76994875263446        0.93830378839514        0.05742225405144
N            3.78433264405524        1.83576388850922        0.16142672906093
N           -0.77127479949424        1.77081496784056       -0.06213499986364
C           -2.05564886264055        1.43154526621826       -0.06779684747570
N           -2.94629249610386        2.45807292931482       -0.12663033185991
C           -2.44960285753432        0.09419995564031        0.02453347233541
C           -3.66016879563633       -0.61545627551805        0.09439303388248
N           -4.93676271016301       -0.12131287976318        0.13394798063724
N           -3.44180489950699       -1.95216710173684        0.07956519729757
C           -2.13126099041534       -2.13923196799077        0.01801840963984
C           -1.42084913384189       -0.91655914443957       -0.00552657613979
H            2.78393928017543       -2.49204372800387       -0.13231133283806
H            0.48624858304550       -2.59166498650902       -0.11741780929046
H            1.41659273628252        2.53104565850031        0.07789699069488
H            3.58771417292379        2.81984853810361        0.14018529245288
H            4.74037657393715        1.52955661868001        0.10476350780730
H           -2.55180270640325        3.35961084472387       -0.34235628134046
H           -3.86976233796926        2.26454445594599       -0.47428460830564
H           -5.62644644557316       -0.83266937015333        0.32812645176637
H           -5.07010521094409        0.73836134155902        0.64406135695166
H           -1.73808042124713       -3.13897566181299        0.00285394403790
