29
 energy: -51.204147323621 gnorm: 0.000812553134 xtb: 6.6.1 (8d0f1dd)
N            5.79557294604763       -0.51874387965556       -0.10872471136057
C            4.65733124814300       -0.37454656885005       -0.05974570108483
C            3.25765896365013       -0.20711742758984       -0.00358412312452
C            2.76716289732716        1.08669934651005       -0.21402236769040
C            1.47184296905843        1.53778739743496       -0.16416446344512
C            0.23951817224297        0.86014361348393       -0.01053978971344
C           -0.91451305440248        1.67308310325103        0.03372708464391
C           -0.80235847360224        3.07511989726020        0.03436805197194
N           -0.80307790547834        4.22596839733176        0.03520475291669
C           -2.23891378619650        1.16334994458063        0.08415695113744
N           -3.29356201179800        1.99242920211645        0.17605942643382
C           -2.38110565761669       -0.22221000795804        0.01322041936583
C           -3.48276459101245       -1.08380701240880       -0.02483761090217
N           -3.10903963067124       -2.36018444689798       -0.13048482338116
C           -1.76780165526494       -2.38878780640798       -0.14408818567380
N           -1.12652001154192       -3.58426350023993       -0.26149143513940
C           -1.21512655677008       -1.07452584744288       -0.02847614524656
C            0.08676396478563       -0.58052504754600        0.06363423123489
C            1.13988688838301       -1.49736110745878        0.31251248687557
C            2.50061842167411       -1.35030933647343        0.29730890257089
H            3.52286145956704        1.84004453682750       -0.40479913939505
H            1.36496758256346        2.60883299439476       -0.29592575083550
H           -3.15811049518180        2.98955522404375        0.18488313869775
H           -4.22566249580317        1.62023928574320        0.17126341683092
H           -4.52795540172331       -0.83409089124432        0.00136946408658
H           -1.75329380148874       -4.34881689160283       -0.46627145721538
H           -0.24591204311023       -3.60349789927113       -0.75168079752185
H            0.79265643585552       -2.48276288623377        0.59234756123989
H            3.08033644596385       -2.23775374739658        0.52604099152402
