30
 energy: -50.919956655091 gnorm: 0.000762175273 xtb: 6.6.1 (8d0f1dd)
N           -4.71972722102024       -0.28237008295655       -0.35781568626273
C           -3.58448521903848       -0.16180426563117       -0.22606118191247
C           -2.19480595895603        0.01278385954887       -0.09362282288980
C           -1.64317396230466        1.28660768730859       -0.15411630655144
N           -2.47278793610233        2.38546313763949       -0.25416336358888
C           -0.22330280430636        1.47680788457747       -0.00298373880489
C            0.19539429043615        2.74521367327424        0.40078074942655
C            1.45274581372851        3.22679235335151        0.72336885786518
C            2.67969634908645        2.63886285847096        0.46316624060955
C            2.91748825555216        1.45275375062786       -0.20301076949593
C            2.01800601227996        0.44985781945635       -0.56398171024300
N            2.47215034214971       -0.50185522385210       -1.40148693229615
C            0.63866971325041        0.32130633657566       -0.14393067817855
C            0.07442720032222       -0.93645346853742        0.02379594487787
C            0.63120616355436       -2.24983059489420        0.20780007977719
C            1.97517079859542       -2.58446096058422        0.32640784986778
N            3.09348124347928       -2.85555759874576        0.40604819761398
C           -0.42961760746155       -3.14013974571716        0.38878714771012
C           -1.64203243132842       -2.45262422272409        0.29896382161431
C           -1.35960853734600       -1.10743839150470        0.10612558988581
H           -2.13884946401494        3.17614841978617       -0.77998388047984
H           -3.44685346519814        2.16908141729579       -0.40641529420446
H           -0.61199658982515        3.43656566739263        0.60733308758565
H            1.47830936500517        4.20198631383406        1.19109425926231
H            3.55540277547676        3.20844515726334        0.74600919411042
H            3.94861755698488        1.24797538111760       -0.46450842524718
H            3.45804723623134       -0.58464355575345       -1.58403738133096
H            1.89927501892401       -1.30179557944376       -1.61332433475818
H           -0.31548538058984       -4.19260373706630        0.57695368492324
H           -2.62134422947153       -2.88429542471233        0.38670183801398
