30
 energy: -54.144336386366 gnorm: 0.000841077335 xtb: 6.6.1 (8d0f1dd)
N            3.81441155762785        2.80101991060264        0.28962193029308
C            3.15113589028396        1.86538112881895        0.17952849953683
C            2.36454800773563        0.70412364790716        0.05281934406356
C            3.09701989729921       -0.49574703101281       -0.08979020892300
N            4.44784294714771       -0.40252874599866       -0.09318419760823
C            2.55783102729568       -1.77983107516928       -0.24615629105349
C            1.24950366870879       -2.19413199694234       -0.17912350580933
C            0.05470694692043       -1.49690668666831        0.01552516711178
C           -1.14166719039478       -2.29278284975189        0.13422533053438
N           -1.06480491376414       -3.66646411793652        0.23876145004078
N           -2.37687744192633       -1.83683852851730        0.10400213441630
C           -2.53083924323276       -0.52364827575310        0.00773013671575
N           -3.66527925012502        0.16974191902930       -0.03420692264352
C           -3.25185412580625        1.45293707462396       -0.04267390825584
N           -4.13298931872845        2.47067927925126       -0.13099330922558
N           -1.92474902129334        1.65691917701637       -0.00519259652407
C           -1.40565609299610        0.40082677396290        0.01424464412351
C           -0.09469264937848       -0.05784002974516        0.02166212928732
C            0.96231367929918        0.92471493269891        0.03446176159428
N            0.55386748744455        2.19072043707739        0.05958862432803
H            5.00822389041844       -1.22529727380413       -0.22160350663537
H            4.90185193287626        0.49093498601144       -0.01167363363328
H            3.29272386003352       -2.55773408374388       -0.41554766146893
H            1.12558125365190       -3.25947431753327       -0.32350484559605
H           -1.98080441826848       -4.06977464490032        0.37413364528776
H           -0.34915564536583       -4.05865830458768        0.82851868731774
H           -5.09688230891294        2.23929289909973        0.03218004135556
H           -3.81150082471618        3.39522587910047        0.09437715740008
H            1.22299229614607        2.94326031224204        0.07732367585536
H           -0.47235371097806        2.35957756062433        0.03686569921528
