31
 energy: -59.444217148442 gnorm: 0.000725391765 xtb: 6.6.1 (8d0f1dd)
N            4.00629323524492        0.86349456063885        0.93992277689190
C            3.08875454832557        0.31070098386446        0.51914904182493
C            2.00500468952279       -0.50500365070358        0.13466361130903
C            2.27027055290979       -1.89854982727760        0.26897945958907
N            3.39956937548479       -2.28817908796383        0.89012312002133
N            1.57198715309277       -2.90343560212042       -0.24690093239171
C            0.34085499083822       -2.86468112746013       -0.68067383619475
C           -0.65201488098423       -1.89979073383755       -0.50892227044226
C           -1.91227662371233       -2.30824051140835       -0.97671674133273
N           -2.92693922489885       -2.68279061044297       -1.37085761847729
C           -0.51595548834093       -0.54097185248100       -0.08446095181849
C            0.77588823102488        0.13541248003922       -0.15498494662506
C            0.79162175069260        1.52398283665750       -0.39941823967050
C            1.95700560767927        2.17297596414572       -0.84784424147554
N            2.80525506960256        2.79488253227227       -1.31302338130036
C           -0.36275380828006        2.33677570031350       -0.26718224460523
N           -0.30591255762350        3.65701682305880       -0.50519327129253
C           -1.52946442587057        1.69959538269385        0.16711234806182
C           -2.79461156538795        2.16857062616081        0.53655660747526
N           -3.61610641065976        1.17752908104951        0.87605398072929
C           -2.95519493281653        0.02095880399467        0.69918000112856
N           -3.53440186610894       -1.11487702599660        1.11605493600045
C           -1.60648897671045        0.25955045128424        0.23285746759693
H            4.07894070561699       -1.61847673442336        1.20914073954571
H            3.62343792456250       -3.26829635828671        0.87819867830220
H            0.03661762590626       -3.78052248369861       -1.18071287203630
H            0.56260470811705        4.08245294551339       -0.78435183498799
H           -1.11774025101536        4.23075430209225       -0.36810273300478
H           -3.13881824998601        3.18632120928496        0.58260416597252
H           -3.25336816341574       -2.01083054015500        0.75232749156827
H           -4.49981934800992       -1.01239518340788        1.38942856413737
