27
 energy: -52.550186194359 gnorm: 0.000829990046 xtb: 6.6.1 (8d0f1dd)
N           -5.91642880974714       -0.97667871306672        1.00429157552948
C           -4.89250190783057       -0.54264443933533        0.72225683556904
C           -3.64299408825813       -0.00121482527950        0.38273839039746
C           -3.42613740537460        1.30972741355258       -0.07633631926102
C           -2.04824061045678        1.46882156682148       -0.26683189895129
C           -1.27089543957039        2.49525208050145       -0.79104744554615
N            0.04266744554112        2.45925963391197       -0.76019056582458
C            0.67955529167270        1.38555757290228       -0.29689588882573
N            1.91986182213583        1.59931947544107        0.07140724939796
C            2.94191600955090        0.82933318240700        0.31688871250184
N            3.95237465918336        1.36686624733116        1.01789632721418
C            3.09048433380541       -0.51099529116345       -0.19656632220577
C            4.40420786232884       -0.99438373597032       -0.35777681623779
N            5.48745299842777       -1.35858980879525       -0.46763701181974
C            2.03219377041423       -1.35723202833508       -0.45802524032206
C            0.65885357476895       -1.13096856308223       -0.27377094181751
C           -0.11126615932686       -2.31408774107136       -0.40618475295326
N           -0.66958788923080       -3.30773335917658       -0.53384487273958
C           -0.02054283922383        0.09153018367255       -0.11021864776670
C           -1.40485028920531        0.21129074688475        0.06370431943392
C           -2.41891794268469       -0.68258722786335        0.45486581025235
H           -4.18477825482637        2.05030280247796       -0.24705347372553
H           -1.71032638311934        3.39066649409024       -1.21204856865974
H            3.88225804751117        2.33184954900821        1.29457751284110
H            4.82766765805396        0.88125576942269        1.12002734786654
H            2.29653231397106       -2.36175096025574       -0.77178954986038
H           -2.29747894501034       -1.69649667993064        0.78460856061244
