34
 energy: -62.612717461910 gnorm: 0.000937492122 xtb: 6.6.1 (8d0f1dd)
N           -1.83704486103016       -3.63880445008356        1.57714705863373
C           -1.21299188361381       -2.83313064825803        1.04548622521750
C           -0.31655291678243       -1.88122996991210        0.52346332979742
C            1.03151892700286       -2.25819579095799        0.47165450372101
C            1.94714066617486       -1.35328430158005        0.00458962666961
C            3.35310227695454       -1.47117644230709       -0.25524256430991
N            4.07196684415116       -2.60103192550366       -0.11395054988450
C            3.80910293477350       -0.23941732990903       -0.71079078035022
C            2.74939441919724        0.67772849623582       -0.72329752514518
N            2.83981792089635        1.89974974253984       -1.28212723352558
C            1.56493965037646        0.01363852246325       -0.24198924535471
C            0.26401289875420        0.44835671175607        0.01176743243224
C           -0.01772006867377        1.81773843057795        0.31673394399905
C            1.04458356700998        2.58945446847057        0.79652943285588
N            1.88169511245186        3.26925890878790        1.21067042673387
C           -1.28018790209424        2.45561154640258        0.37769739945878
N           -1.34918433999018        3.69805973256431        0.91035626755351
N           -2.42634323175515        2.04848034936434       -0.14327699415671
C           -2.76462829210811        0.82986546245048       -0.51408381728345
N           -3.92439602340622        0.77233622760657       -1.20415655618138
C           -2.10694353741603       -0.39722244923460       -0.19717152761842
C           -2.89465202592360       -1.53429139495663       -0.45240998473797
N           -3.61654694551914       -2.37445619432233       -0.76908013228279
C           -0.74862189932895       -0.58668221986103        0.14586477485256
H            1.30234631933857       -3.26413014840379        0.75944512281875
H            3.65196152772277       -3.41277093273438        0.30096824299903
H            5.06924963026607       -2.57917431154602       -0.22730817270885
H            4.81214716902784       -0.02056751941689       -1.02656416516952
H            2.11400500206410        2.57947157412700       -1.13772943481958
H            3.76026890661374        2.25697132356820       -1.47498947841946
H           -0.55644284709454        4.11493500039195        1.36517447117852
H           -2.24989019622370        4.13894473572732        0.95616241271546
H           -4.44579312683053        1.62422946800567       -1.31285680764515
H           -4.36153738986896       -0.11280201323516       -1.39679691665058
