28
 energy: -49.904494835969 gnorm: 0.000635832186 xtb: 6.6.1 (8d0f1dd)
N           -3.95171443641322       -1.75192524897656        0.09237325847243
C           -2.84614472541168       -0.97141423251203        0.03632013784850
N           -3.12828838175086        0.33242403546133       -0.00512204985077
C           -2.23317556821098        1.30915340589863       -0.04133545632446
N           -2.79236666702614        2.54911912030492       -0.06772303264741
N           -0.90657173078414        1.32526999062829       -0.00755343804056
C           -0.09735229987114        0.25557930250521        0.00283795191077
C           -0.47242490367702       -1.16799281126036       -0.04155090520024
C            0.53499733761324       -2.13082780761859       -0.09455707506881
C            1.90366812912556       -1.85482807709797       -0.07517743231457
N            2.81650914294100       -2.85436233360742       -0.15830389823720
C            2.28393719353816       -0.50617258955243        0.00512206077092
C            3.49315395548666        0.20167627335666        0.07228917218900
N            3.31533050047364        1.52671521668675        0.14514562365481
C            1.98588850582319        1.73201187192441        0.12095217077961
N            1.39003101660008        2.92603330598556        0.16172351667735
C            1.26728908930201        0.49808603441605        0.03588741028216
N           -1.71863827705841       -1.65823216730546       -0.01039792086520
H           -4.84609566230590       -1.31701996711311        0.22353865375347
H           -3.83401720186629       -2.74165996948570        0.20621689927055
H           -3.78049949539806        2.60529017461951       -0.23645193778939
H           -2.20914042008880        3.33808981936448       -0.27999727004143
H            0.20897608946982       -3.16013752029186       -0.13843705707936
H            3.78581824879757       -2.64840144095025        0.00267470963554
H            2.51071364384644       -3.80778191798245       -0.07371850735330
H            4.49440590114714       -0.19382913693525        0.07125653686765
H            0.37771786101584        2.88658180313591        0.18924920527951
H            1.92347744438228        3.76436835920171        0.30451320682046
