24
 energy: -38.989543855513 gnorm: 0.000730979069 xtb: 6.6.1 (8d0f1dd)
N           -4.13016804163873       -1.32257395164298        0.03628513236296
C           -2.99152616236183       -0.58080615461767       -0.01525624537574
C           -2.91839455531491        0.83607713048642       -0.00800328216220
C           -1.56547849059089        1.13044498082125       -0.00158787080347
C           -0.79854013391517        2.29910274304045        0.00197867393924
C            0.56965263834588        2.20727485741953        0.00137874540168
C            1.27040136449231        0.97821880795179       -0.00167833433206
C            2.66098948779575        1.05092997065587       -0.00397629868591
N            3.63216265348871        0.14533756017662       -0.01060286077932
C            3.50356284041583       -1.15551414071664       -0.00791750343470
C            2.36028331673518       -1.97079995203190        0.00378392237955
C            1.04720078743251       -1.56538891986902        0.00501328209728
C            0.49813624012874       -0.27063313208727       -0.00159749314785
C           -0.88788121250031       -0.15925448586675       -0.00386817656582
N           -1.78853079844696       -1.16666451948590       -0.01481525755858
H           -4.98700806737902       -0.88867680891382       -0.26150922921208
H           -4.02448105956062       -2.30348283274778       -0.16168800887887
H           -3.74934768847872        1.51446903207036       -0.00688428168203
H           -1.28194220995577        3.26627558046365        0.00413400006988
H            1.15778422506411        3.11447273096394        0.00277070771694
H            3.07046831521674        2.05984831858002       -0.00162768966305
H            4.46162556543179       -1.67026729641995       -0.01484863952799
H            2.54459516904098       -3.03740505006977        0.00987341472686
H            0.28670772195445       -2.33765857476048        0.01086180981530
