30
 energy: -50.916854507938 gnorm: 0.000779502469 xtb: 6.6.1 (8d0f1dd)
N            2.21396617590021       -4.03533704626436        0.54436458539916
C            1.58124430089929       -3.08744234500665        0.39042202911157
C            0.75255415727744       -1.96505942455063        0.21323690075283
C           -0.63250418701705       -2.18589681279431        0.26775743956916
C           -1.47324078152133       -1.13908118423409        0.02051564995591
C           -2.89774406598378       -1.07180812593016       -0.08327739753531
N           -3.73914876472973       -2.12704236378019        0.03041821200141
C           -3.23844255249128        0.23612146308739       -0.40281207988062
C           -2.08282559303026        1.02960598209903       -0.46938025866333
N           -2.10096493487026        2.29785570763822       -0.93485981991924
C           -0.94720520937405        0.20341277853211       -0.16890491330062
C            0.41404711435372        0.45229728479456       -0.03266419924530
C            0.89472048434801        1.78695228550429        0.24242724721919
C            0.00229472853983        2.62783141780101        0.92639310187893
N           -0.69101962545791        3.34072753580738        1.50921196504728
C            2.12895323281763        2.37250967669158       -0.01781091888099
C            3.28034013437993        1.78848263154412       -0.50968919275812
C            3.52198974974201        0.42037859604855       -0.60855136443014
C            2.69446761351902       -0.63149410184256       -0.29197749988768
C            1.30796125227414       -0.68365400321604       -0.01670638107327
H           -0.99473986955459       -3.18704926822767        0.45635227084468
H           -3.39534544235539       -2.97984514051047        0.43511827746276
H           -4.72675987179900       -1.95195611271268        0.09329543657617
H           -4.23445704489801        0.59518560306538       -0.58658319415926
H           -1.31027001588996        2.90405751158240       -0.80561618553294
H           -2.99816588383477        2.74863051892545       -1.00166372507939
H            2.18206049168008        3.43492458176558        0.19817253596569
H            4.10086575685639        2.45055893278460       -0.74892249327312
H            4.52221725928997        0.14490499211100       -0.92012762351506
H            3.15885660013973       -1.60960918770967       -0.34616005884887
