23
 energy: -40.061097277159 gnorm: 0.000670630612 xtb: 6.6.1 (8d0f1dd)
N            5.33036156302322        0.71113631866056       -0.00224700526313
C            4.20881498949286        0.47094494859386       -0.00152189223917
C            2.82357165600096        0.17862078009431       -0.00101970444287
C            2.47560890158850       -1.17505724913981        0.00078539541305
C            1.22116049585422       -1.73826794816254        0.00177483019581
C           -0.06574789889709       -1.16250822790760        0.00141001337453
N           -1.02939313300787       -2.09493119638720        0.00274239478212
C           -2.30685543614389       -1.76975199538389        0.00272762319225
C           -2.72905913757675       -0.45293909063160        0.00136438995825
C           -3.95813710892536        0.22801647375844        0.00097452261759
N           -3.77673283251328        1.55063902274555       -0.00060312269517
C           -2.46360516295171        1.78824884149763       -0.00130929012761
C           -1.71988900318944        0.59132476495223       -0.00015922488350
C           -0.35894996144083        0.26552770576372       -0.00021329024183
C            0.59102358446080        1.30997402696092       -0.00183470284271
C            1.96163444790265        1.28690362503918       -0.00220246657872
H            3.31018015114126       -1.86674008577833        0.00149878854076
H            1.18018169800083       -2.82048299316931        0.00311608416197
H           -3.00215273873103       -2.60029992820302        0.00386109620095
H           -4.94643569740250       -0.19221277020100        0.00177946629591
H           -2.10641452109035        2.80186765836879       -0.00258713732365
H            0.14678769032453        2.29772568013029       -0.00295808246812
H            2.45691723798029        2.25130363699883       -0.00353845572669
