31
 energy: -59.463592163289 gnorm: 0.000360504587 xtb: 6.6.1 (8d0f1dd)
N            4.90662349134749        2.81231225596259       -0.01775939434378
C            4.00005892956786        2.10698743613091       -0.01326109560789
C            2.89245482900807        1.22787352717172       -0.00765028918990
C            1.65308306348344        1.84426373774456       -0.00804581709689
C            0.35390138601194        1.33610568216937       -0.00133605188872
C           -0.67049884327824        2.33143324255465       -0.00277566278241
N           -1.95450617448698        2.13095026651899        0.00303039035384
C           -2.35089392337071        0.85661445688457        0.01207974890561
C           -3.62884290639000        0.29497961460191        0.02108540689326
C           -4.88282091174093        0.89606374167112        0.02985127737671
N           -5.95127228264647        1.32190966868813        0.04307319264575
C           -3.41085117039104       -1.12032042555783        0.03112872760383
N           -4.37722426510484       -2.05269737245005        0.01681055671628
N           -2.11274532610563       -1.43611699253404        0.02864958125741
C           -1.42289050289869       -0.26291662105545        0.01564675156915
C           -0.04512796170870       -0.04903016896458        0.00751943298473
C            0.83657010892317       -1.19741564140184        0.00639694103913
N            0.22923791190560       -2.37815515729712        0.01053803833689
C            2.25700405134674       -1.20814445632307        0.00178583329733
C            2.83167107714859       -2.49932450371175        0.00310857924783
N            3.31289293386815       -3.54433010145837        0.00496251005180
C            3.20050031431464       -0.16044161621240       -0.00285421023043
N            4.50682600202749       -0.49033701660568       -0.00343952459402
H            1.70820175173269        2.92813728604232       -0.01383017938857
H           -0.37115916543801        3.37198429449350       -0.00927036567227
H           -5.33682040900437       -1.76875894609555        0.10422785255177
H           -4.13436968763081       -3.02232728280487        0.10965662088319
H           -0.81209328955552       -2.37468669278820        0.01525320309000
H            0.76699633604970       -3.23040885878145        0.00813963118687
H            4.79464756879470       -1.45475777011408       -0.00108215836212
H            5.20915113542065        0.23094871362194       -0.00759661513434
