27
 energy: -47.755381533705 gnorm: 0.000611373287 xtb: 6.6.1 (8d0f1dd)
N            5.62127618990186        1.11390909827486        0.00895496487358
C            4.59809747191689        0.59589000514167        0.00394070700924
C            3.33628145902136       -0.05076652909871        0.00088344980835
C            3.38078093265643       -1.46147722474774       -0.00208368269334
C            2.31672622802786       -2.32257734187700       -0.00497892320582
C            0.94750671928473       -2.02536412667077       -0.00381463039700
C            0.25616410090969       -0.82691447791915       -0.00064470966607
C            0.85348675622000        0.52075613756556       -0.00129620922147
C            2.23342417635348        0.78564385390058        0.00006323323433
C            0.02026288494994        1.63732401568297       -0.00197843372458
C           -1.37736535069673        1.56791943357354       -0.00237174115214
C           -2.13832306720396        2.75623311372478       -0.00158630549190
N           -2.72863793745437        3.73928286984730       -0.00006448552501
C           -1.98648050989711        0.31931487566078       -0.00043276499482
N           -3.29073208205897        0.02232791342566        0.00649018108628
C           -3.35828357358055       -1.31641266571005        0.01372849690871
N           -4.54857005314750       -1.94880549417305       -0.02271271615486
C           -2.07556807564524       -1.93008604358673        0.01206290574844
C           -1.16018486934759       -0.88794964023420        0.00275064275651
H            4.37355434609727       -1.89476886051739       -0.00234499051710
H            2.55795474524386       -3.37793342127075       -0.00796607451486
H            0.31069248901269       -2.90100609492560       -0.00597517476620
H            2.48044177549431        1.84308097208432        0.00111908245370
H            0.47163930115999        2.61957864566663       -0.00234683781897
H           -4.60257154662084       -2.92909795960146        0.18835937750049
H           -5.36918354650124       -1.38122468652521        0.10156135351615
H           -1.90472743959619       -2.98903344589074        0.01660269494829
