30
 energy: -54.140729574143 gnorm: 0.000611135900 xtb: 6.6.1 (8d0f1dd)
N           -4.56120314144150       -2.44955756575732        0.03142642598622
C           -3.63955828641016       -1.75904884189912        0.04850222650612
C           -2.53572431922081       -0.91183488054679        0.05718176149737
C           -2.59027841877813        0.50084465058742       -0.03098813564012
N           -3.74217637722987        1.22481276870652       -0.10915940718299
C           -1.26508119163743        1.00353892732650       -0.00017764077849
C           -0.72373771033261        2.28779564771091       -0.00840912422446
N           -1.49998093443332        3.41918714655265       -0.02221878016055
C            0.67386627768728        2.39600082089959       -0.03241766436940
C            1.55066528452452        1.32185405300975       -0.00104047105340
N            2.86079808381481        1.66827160638292        0.04283961495663
C            3.87563292256522        0.85513817152470        0.09176742819549
N            4.01827169588294       -0.45751599259154        0.03933932259347
C            3.00988341704599       -1.33299355581139       -0.01464500708680
N            3.43646696140643       -2.61477665204240       -0.09248203332500
N            1.69206897022682       -1.19963562568519        0.03449963362344
C            1.00763204894485       -0.03686072180853        0.04151482052810
C           -0.37838766917179       -0.12409888959670        0.05556083355992
C           -1.17843327025599       -1.30534012920231        0.10430900685974
N           -0.65109156183243       -2.52670445845029        0.16937119406369
H           -3.70146882265223        2.10673404341447       -0.59451619303101
H           -4.58345003680641        0.68882994316356       -0.26518640375681
H           -1.00667459945122        4.28360455122567        0.14016992348215
H           -2.39822715106644        3.35868713228353        0.42980963800019
H            1.12225092350387        3.37883162985144       -0.04346714946377
H            4.83318352085703        1.37094527724009        0.17116394250444
H            4.42335833330899       -2.77657434328168       -0.17832107038413
H            2.78202509290165       -3.36627443063998       -0.20939315529173
H            0.36960382919419       -2.52537494311401        0.16258871168837
H           -1.22134781234421       -3.35335158095249        0.20320746190323
