32
 energy: -54.374077915092 gnorm: 0.000482152179 xtb: 6.6.1 (8d0f1dd)
N            4.51674828333790       -2.46138724966928       -0.09775320802006
C            3.63242246682578       -1.72426680903228       -0.05207635426804
C            2.58280553448347       -0.81470145873977       -0.00563309656609
C            2.71057886173982        0.58686158876291       -0.10977960899596
N            3.88358707499082        1.27338537911311       -0.19287034588227
C            1.42479560136164        1.16784071124667       -0.03771960160866
C            1.21246371194553        2.52373802514748       -0.23831299976388
N            1.07191110796934        3.65691053378292       -0.41205907800231
C            0.46461392636164        0.11592579727967        0.10930546994870
C            1.20528713223580       -1.11469620153895        0.09270081656914
C            0.53153829974929       -2.32795133094566        0.11461500802653
C           -0.84099674290648       -2.32810479731986        0.10125699729797
C           -1.61505610826573       -1.14486440596621        0.10027551061536
C           -3.03514292858324       -1.29953001855072       -0.02395652349958
N           -3.58273312790696       -2.49855187293222        0.29481275777025
C           -3.90661331893827       -0.37764783152383       -0.61767569682304
C           -3.75383736552674        0.98340602677634       -0.77128761335160
C           -2.78632383842669        1.78421964830942       -0.19226021390249
C           -1.60628466874233        1.37597289364361        0.42146397712069
N           -1.00783309180739        2.23609391698692        1.26675512955962
C           -0.93732168932867        0.11477659045294        0.18232252898018
H            4.70496457637841        0.75387910384068       -0.45531896238295
H            3.84141953451795        2.23367352639903       -0.49262992129434
H            1.08338779701824       -3.25610114987987        0.09214189039565
H           -1.33529143918390       -3.28233037505818        0.00332776923934
H           -4.57107456358951       -2.63469770779755        0.17885883375089
H           -3.06879948712061       -3.17821642030849        0.82367158841783
H           -4.85446471256909       -0.79077332685730       -0.94208912959730
H           -4.55999198203799        1.49850767803627       -1.27699246575127
H           -2.97870396698150        2.84926917997090       -0.17697253925326
H           -1.28466115367553        3.20401786727928        1.27545761949491
H           -0.09131148842535        2.02410592119182        1.62597333097618
