30
 energy: -50.115589305571 gnorm: 0.000776261048 xtb: 6.6.1 (8d0f1dd)
N           -4.72083905348951        1.81783595769350        0.19132514608152
C           -3.69807287788431        1.29060740770508        0.14035169112799
C           -2.46594035590934        0.64645228723986        0.07608068867793
C           -2.28025917098527       -0.74803490070321       -0.08027768269329
N           -3.29831212540896       -1.66818013526549       -0.18574234981681
C           -0.89761656124463       -0.99943460818275       -0.04998311079284
C           -0.16300171767807       -2.18498004815157       -0.04886298072025
N           -0.76718834140601       -3.41261925208541       -0.09330834149484
C            1.23124524442650       -2.08784233738146        0.00049923761525
C            1.92655414014436       -0.88444964212509        0.02107584144043
C            3.33162159502916       -0.95379623482668        0.21247836270273
C            4.28275749389470        0.03894262723786        0.27130791234144
N            4.23131950755169        1.32699131197595       -0.03588698619514
C            3.13079176424648        1.96834861541378       -0.38123576435715
C            1.79706871789755        1.60953188107098       -0.33779234003273
C            1.18810667703495        0.36487279763596       -0.05748985221456
C           -0.20481339539362        0.27388935594601        0.02885698764553
C           -1.20411516622311        1.27545289638804        0.15767588246165
N           -1.03836452540787        2.62099393213733        0.32686073087546
H           -4.21188265163264       -1.25452304445205       -0.31198772681717
H           -3.12463376540840       -2.44547631632902       -0.80533585453296
H           -0.17673482543833       -4.20507467087244        0.10572190083842
H           -1.70001792329352       -3.47146382406471        0.28157203450184
H            1.79875153866484       -3.00789823688423        0.04142441267951
H            3.70448990346254       -1.95556662717173        0.39431046332423
H            5.28467556010040       -0.27299278588803        0.55735029323858
H            3.33673696715299        2.98471190565619       -0.71103593788672
H            1.11189485782515        2.38997640214060       -0.63870841406351
H           -0.19759156443569        2.92556999653829        0.79243444860761
H           -1.87412705369175        3.12833506130549        0.57875644125782
