24
 energy: -43.779652212659 gnorm: 0.000624207069 xtb: 6.6.1 (8d0f1dd)
N            5.02209554807891       -0.53493915732300        0.06545572920361
C            3.96403903362031       -0.08516556061832        0.05883204858160
C            2.69252895709281        0.48237395273411        0.05071377302719
C            2.38303512109845        1.87323551265945        0.03902173708254
N            1.09143473144089        2.12993622678179        0.02353596440155
C            0.46896484722384        0.91870542988971        0.03896506063536
C            1.44714961724682       -0.15726987537545        0.06352508648611
N            1.10782999848528       -1.44429541352627        0.08294157747128
C           -0.16998782005400       -1.74721309769280        0.05530038104617
N           -0.45327213335183       -3.08277422762829        0.07620070401478
C           -1.23778662702195       -0.77781659062876       -0.03901404034059
C           -2.53814730053317       -1.20442751752835       -0.28988718918484
N           -3.66589065434966       -0.60411882596148        0.03325261029779
C           -3.94083039559427        0.63545638772394        0.26398222550295
C           -3.14201668240789        1.76279545535351       -0.04791294381877
C           -1.78378921939995        1.73015052647101       -0.16247431683615
C           -0.88364884323140        0.63553792482316       -0.00716035862444
H            3.10046294486054        2.67466959186647        0.03635098180061
H            0.35108451900504       -3.66711328997135        0.24179013827264
H           -1.32905021904661       -3.40762492214140        0.44526472132973
H           -2.68874827498618       -2.20473616593336       -0.68398455226614
H           -4.92412887791312        0.80754356029309        0.68964204143467
H           -3.64198364970291        2.71950906253488       -0.10955115843726
H           -1.26284899146000        2.67052611539804       -0.30024506707996
