30
 energy: -54.925049050244 gnorm: 0.000886514125 xtb: 6.6.1 (8d0f1dd)
N           -4.94813480577995       -1.57554587891543        0.37401605914114
C           -3.87583389474399       -1.17743853399692        0.22999293206693
C           -2.56660022195116       -0.70817823329979        0.05466905142298
C           -1.57010709558256       -1.71029778970678       -0.20692127856608
N           -2.02604072849219       -2.95491984559308       -0.48549615838524
N           -0.26918192951310       -1.62231093722517       -0.17162276176448
C            0.53734215377440       -0.56154299930857       -0.09297394846002
C            0.17209109413358        0.85099700465188       -0.20204384439670
N            1.09417091966510        1.81633105002484       -0.34319157066291
C            2.38111719051310        1.54980580139125       -0.27131037810976
C            2.85096763130160        0.27867754004027       -0.00375980768416
C            4.14477523790874       -0.29338148130041        0.14941909255892
N            5.31649579894295        0.37098295248196        0.12151852919729
C            3.97961839381346       -1.68959723981581        0.30270877216801
C            2.63867580498789       -1.99756632573166        0.25132501913548
C            1.90100474584102       -0.79822757811087        0.06608038782321
C           -1.13801463656712        1.35634350999002       -0.09702441083070
C           -1.21512519770028        2.76743693857655       -0.12575549880920
N           -1.36839866032951        3.90682118016775       -0.14426320310246
C           -2.37317991877195        0.68175216399046        0.10715298232286
N           -3.45692784584552        1.45451487854265        0.34473859632033
H           -3.00229489076947       -3.18135286117027       -0.40495597822377
H           -1.34458437146294       -3.68824947563884       -0.57151036524031
H            3.03413865148199        2.40152164565362       -0.42410344648641
H            6.17765706992602       -0.11877008491377        0.28532668012111
H            5.32747486152084        1.37391578994401        0.07476453042280
H            4.78665925353542       -2.38605968801799        0.44002659537315
H            2.20364544771211       -2.97518708180702        0.33368892239051
H           -4.36439956867426        1.03310336051208        0.44650736785046
H           -3.37211829757440        2.45679629928486        0.33516725100703
