29
 energy: -55.992778516488 gnorm: 0.000966624355 xtb: 6.6.1 (8d0f1dd)
N           -3.06590406137264       -2.66306816251381       -1.21985894669476
C           -2.07322783609435       -2.28327321116266       -0.78714283051234
C           -0.77887035198138       -1.88335045442779       -0.37645780350620
C            0.18645462937898       -2.87546387000417       -0.53725374306704
N            1.41865132083276       -2.91472960284268       -0.10095970859671
C            2.15498307104618       -1.91376524323309        0.34339553937887
N            3.26905401895438       -2.28556976883854        0.99684472678322
C            1.93945880701539       -0.51578960753266        0.08709213373931
C            3.11249381794269        0.25368301746101        0.23175589140734
N            4.12655785264640        0.76549219994833        0.41145927143617
C            0.71835543737503        0.13484288401598       -0.13580185865790
C           -0.58498504481742       -0.52095835512016       -0.00778193509735
C           -1.70430808468479        0.24913945971922        0.32905045647175
C           -2.90439509965212       -0.35377008498005        0.75580173261782
N           -3.89406277805841       -0.71355476926781        1.21621810524137
C           -1.70040074573907        1.67736259944345        0.30932666515110
N           -2.79430306109766        2.36597684296749        0.65459050006485
C           -0.52848118635477        2.29072115440226       -0.13640612919102
C           -0.17517855423891        3.61844960869794       -0.42786481685944
N            1.09119116985307        3.70449799742744       -0.83670274285498
C            1.61452007759341        2.47908428487247       -0.79144282970368
C            0.66968820485766        1.52394481359168       -0.36339108729872
H           -0.13887590954566       -3.80253732295041       -0.99942418141490
H            3.96773333663165       -1.61456719384797        1.26829417152799
H            3.45715263583293       -3.26994968795564        1.08353947752558
H           -3.63502780218067        1.88398956580192        0.93033952752067
H           -2.79999241772568        3.36817021216337        0.58456235321108
H           -0.78793490826630        4.49994177827564       -0.37145530385174
H            2.62625373874829        2.31948366628915       -1.11053294076989
