29
 energy: -50.406128112771 gnorm: 0.000585504943 xtb: 6.6.1 (8d0f1dd)
N           -1.87949931068382       -3.71957428274288       -0.38186346599673
C           -1.22178237406935       -2.78085781870371       -0.29658368214229
C           -0.37567980327996       -1.66150160190041       -0.19823709289270
C            1.00853251599815       -1.85246858918778       -0.20308048913969
C            1.81372517717233       -0.75606676872500       -0.03000465390387
C            3.22430419455069       -0.56338135578024        0.08068913487607
N            4.17898839648596       -1.51059253712689       -0.01187399935755
N            3.53130099890998        0.72480593477552        0.26661657539293
C            2.37222460234464        1.41565355237893        0.25678101457339
N            2.39771239929694        2.76138386006017        0.43281062949800
C            1.24730202453516        0.57055784263450        0.05805882783119
C           -0.12574812329785        0.80090511326799       -0.08086468886863
C           -0.61625968680301        2.08846006721912       -0.38281773421378
C           -1.92023489842895        2.52339886029598       -0.54082322751883
C           -3.10186869850525        1.85711202408762       -0.28208202632877
C           -3.19832501914935        0.53031102721550        0.19244519611244
N           -4.38679910144341        0.11702915766092        0.70201664320065
N           -2.28228959558879       -0.41435388936088        0.16493097087153
C           -0.97624781012133       -0.38103753666667       -0.05393070262834
H            1.40634847412143       -2.85261309970351       -0.30778575544512
H            3.92218180410184       -2.47901471849923        0.05048726406262
H            5.12196516714323       -1.24228872730720        0.20828819545572
H            3.28945202920239        3.12481893553765        0.73114162100926
H            1.57930654852674        3.19858484641039        0.82484717615033
H            0.14765598118836        2.81493248747139       -0.62582083099892
H           -2.02701477926342        3.54930763743077       -0.87508616065748
H           -4.02905353994073        2.40069068070055       -0.40187066187358
H           -4.48290541999867       -0.86475498451937        0.89851344151459
H           -5.21394810560297        0.67335719617677        0.58310565011769
