27
 energy: -46.170516281164 gnorm: 0.000557622835 xtb: 6.6.1 (8d0f1dd)
N            4.07479834938868        1.89605632318048        0.43376133455826
C            2.97091994117028        1.17727324344719        0.12299280415065
C            3.11596712131729       -0.19755097247483       -0.09744229172601
C            2.14107687801266       -1.18373267545353       -0.19834263983225
N            2.60227023945630       -2.43740091790860       -0.45203296611305
C            0.73002497271212       -1.02845234635361        0.02475518982649
C           -0.04791376260625       -2.16309498992546        0.28314755580018
C           -1.42987780521461       -2.14836612140746        0.39839229134383
C           -2.09793533379891       -0.95769334651106        0.19519273526481
N           -3.40445260983167       -0.63728623379802        0.21280150416443
C           -3.40047336825376        0.68297135365171       -0.01543516373649
N           -4.54737011940296        1.39283011092778       -0.13762649587405
N           -2.19154538229277        1.27333192265298       -0.17129706212098
C           -1.33408024545607        0.25301093579118       -0.05622278876375
C            0.07305182325846        0.25569067580142       -0.09099286084132
C            0.66977553817506        1.51681633290392       -0.23503311135577
N            1.89052470459505        1.94020711064190       -0.05601054049353
H            3.96574382556752        2.88615821203501        0.56254768572977
H            4.96115027710746        1.46012332000975        0.60628781237849
H            4.14105273766807       -0.54705562608058       -0.16603955933296
H            1.96126844203805       -3.15870696444943       -0.72684225437507
H            3.57025393807852       -2.55860571822759       -0.69319049385109
H            0.44383958302298       -3.10972683249335        0.45920478494656
H           -1.96915165451166       -3.05354271266866        0.63349280786209
H           -5.37874274425981        0.95518860763530        0.22022643820346
H           -4.46487919973729        2.39112062127704       -0.05192497986883
H           -0.03754248960253        2.31421007549608       -0.44648933884348
