30
 energy: -49.315021814628 gnorm: 0.000540627328 xtb: 6.6.1 (8d0f1dd)
N            3.91000937545403       -1.36775731842971       -0.97223830685286
C            2.80480540517729       -0.86075258971852       -0.35944726589057
C            2.78349010129827        0.48342751671745        0.01195357280391
C            1.67259051356628        1.22723261692354        0.40923995366424
N            1.91540881695645        2.41937353185726        1.00117834825969
C            0.30232213817986        0.87127204904175        0.15412476823362
C           -0.67983569271353        1.89425364136212       -0.04635702983697
N           -0.30240013327550        3.26636407736162       -0.11987394195740
N           -1.96209221776472        1.69012272441931       -0.18982109154193
C           -2.42273382488589        0.44031852707530       -0.19271580019017
C           -3.71892307066486       -0.03152725885646       -0.32585565598020
C           -3.65156466706380       -1.42941955319597       -0.35414891845258
C           -2.33949361029824       -1.85594399557009       -0.20157271062249
C           -1.52599982921397       -0.71455341289177       -0.08019875083375
C           -0.17048203756205       -0.47630733202170        0.13354468888184
C            0.70515972214346       -1.59384288728152        0.45217009950205
N            0.17696288090858       -2.59091385568883        1.17726023009943
N            1.92658133755233       -1.77657092674038        0.02882546303901
H            3.86500066983870       -2.32240993522262       -1.28197506996895
H            4.55560956588381       -0.74768425305207       -1.42590728996485
H            3.73475923517096        1.00247966548169        0.00097583775470
H            1.14356995875862        3.06983966773828        1.08392133277910
H            2.85798078912851        2.76803762999454        1.03013676762476
H           -1.15525217261898        3.80348183996623       -0.24240236830279
H            0.31772953052863        3.44501622346655       -0.90384669425315
H           -4.60567955940624        0.56609854118970       -0.41676115600720
H           -4.49901296180304       -2.08380550305553       -0.47404643828935
H           -2.01692770599178       -2.88229956860267       -0.25507798540930
H           -0.79557207241384       -2.55372560299758        1.43218019467443
H            0.72651509923046       -3.41319257787006        1.35521328943767
