34
 energy: -57.811529402410 gnorm: 0.000538284288 xtb: 6.6.1 (8d0f1dd)
N           -5.30132978184519       -2.75311165369550       -0.07601391120923
C           -4.38459976622039       -2.05774524927126       -0.03397288103555
C           -3.30713688051289       -1.17391760858577       -0.00174365960119
C           -1.94997910461928       -1.50233358781428        0.04330511490017
C           -1.19872745307187       -0.31482916774043        0.02619327952104
C           -2.13896257352434        0.77694514297717       -0.00773302031715
C           -1.67199922863240        2.09727505370372        0.04615943400532
N           -2.53492906683687        3.15970397082038        0.07890379628823
C           -0.29723944299376        2.29985816576299        0.02793241749344
C            0.65416332066947        1.27340783495227       -0.00203764855814
C            1.99568196676676        1.68075665748115       -0.03835942787228
C            3.20435948969486        0.99875182455276       -0.05625800076486
N            4.33110606895407        1.76321369416815       -0.15535155583775
C            3.40260062421056       -0.40473801528646       -0.01185319430767
C            4.73464080747070       -0.84608549111698       -0.02202762434815
N            5.82927529489930       -1.20829431796405       -0.02785660461013
C            2.40877624970856       -1.40737682275923        0.04438356603354
N            2.84686932355762       -2.69532452025323        0.12077551677488
C            1.02505511762829       -1.23042459249192        0.05340041603707
C            0.19974669875895       -0.10993884225689        0.02669290863632
C           -3.43536895789501        0.24036284954153       -0.05263518312580
N           -4.63280229262792        0.92373689399397       -0.10210489654901
H           -1.58503142816388       -2.51217450801784        0.07772805607003
H           -3.44432218749944        2.98636530465894        0.47565031825777
H           -2.13194197803865        4.05532525909395        0.30632447007646
H            0.05804815358285        3.32179753717383        0.04910804750137
H            2.11956998770141        2.75907856002071       -0.06775241296718
H            5.23597059815457        1.33749256203657       -0.05333954156496
H            4.26297955265941        2.75990891289749       -0.05889178004849
H            2.18894792111429       -3.45069863516103        0.05797647059387
H            3.82552677520302       -2.90354162970451        0.02478550121310
H            0.48617309161412       -2.16890459984281        0.08971841525262
H           -4.64173358723012        1.74501917320173       -0.68975641735437
H           -5.43292607863641        0.32360382832494       -0.25191971148341
