27
 energy: -52.551101940517 gnorm: 0.000478200457 xtb: 6.6.1 (8d0f1dd)
N           -5.61302091795512        2.16148108384757        0.00849529112071
C           -4.56840621063967        1.68821198697827        0.00559058537559
C           -3.28322890141595        1.10735370530727        0.00092100335478
C           -3.02396516130136       -0.00913036345079        0.81756726019029
N           -2.05319797900947       -0.86134800828163        0.66223082738861
C           -0.88031314901759       -0.79757416910025        0.09529583152935
C           -0.09059292732240       -1.92784499616433       -0.14390693596310
C           -0.68421114934774       -3.19966902620751       -0.23657371787946
N           -1.12699367157931       -4.25481118720098       -0.33447691411304
C            1.32609523077658       -1.82126240607087       -0.18099725901569
N            2.07108166846489       -2.91802944254254       -0.36522365707992
C            1.91126543280198       -0.55646505495673        0.04339037206703
C            3.24581104807554       -0.16477019799632        0.12706038223985
C            3.28049651143617        1.24013813937857        0.26019777400977
C            4.44995041440069        2.00245108871783        0.39172148369050
N            5.41381123819160        2.61648541827819        0.49962274509323
C            1.97582095697564        1.73894710381952        0.22619802610932
C            1.10721742162361        0.64490979882733        0.09470849041013
C           -0.26920086995796        0.55989186136701       -0.11362522027447
N           -0.99569437839920        1.48960070209552       -0.65888087845225
C           -2.27888336026547        1.65517078867708       -0.81518444303408
H           -3.74471652400651       -0.28378017054885        1.58031065000538
H            1.62963278030248       -3.81585424960043       -0.48287801282994
H            3.07316569625231       -2.86475415143124       -0.31664894030977
H            4.11644918246222       -0.79424709236756        0.09291802659419
H            1.68800147080190        2.76990532507658        0.30182974312001
H           -2.55044518674869        2.38553477154959       -1.56998512714656
