28
 energy: -50.714391825183 gnorm: 0.000866529739 xtb: 6.6.1 (8d0f1dd)
N            3.60353240358965        3.28136711194023       -0.23810474663064
C            2.72936369184835        2.54184647735839       -0.15173519838739
C            1.66191970973573        1.62687878175975       -0.06298156186595
C            0.36336472124068        2.06357798563085        0.08887094336418
C           -0.74268189581688        1.18626443256377        0.14638075613099
C           -1.99921268834311        1.79220463081912        0.34983616206067
N           -3.21724774010940        1.34626784676778        0.22437633689966
C           -3.55595827752268        0.08895282992544       -0.09529367042144
N           -4.82484876969326       -0.03528981637532       -0.52504354990909
N           -2.89353816954592       -1.04726357217800        0.02717301938491
C           -1.59054145272152       -1.22086224690531        0.19008642071116
N           -1.21034329286582       -2.47222697659301        0.41145978164640
C           -0.52408190099619       -0.23617911646634        0.08183457467588
C            0.79044996589158       -0.67751774796491        0.00150160559707
N            1.24657340712258       -1.95819110022178       -0.00259077622138
C            2.58036593837929       -1.88123523207642       -0.10888575936689
N            3.35245952208208       -2.99963651107222       -0.07600399178458
C            3.04641547163537       -0.54750036568384       -0.17322731140671
C            1.91388907510775        0.23893504105202       -0.10149511248964
H            0.17324311306345        3.12630349892359        0.14619559509231
H           -1.97320534222401        2.84785582008902        0.61202552462423
H           -5.41295522230436        0.77824100450563       -0.54427804087913
H           -5.19762744912623       -0.94927133402953       -0.70723583523776
H           -0.18888164536664       -2.66076449269754        0.34756196770573
H           -1.91965695683552       -3.18568806128594        0.43396902929069
H            4.29950426060334       -2.92124785180177       -0.40388924482673
H            2.88824108450621       -3.87790817739200       -0.23415370868647
H            4.06776957056500       -0.23175079049190       -0.25214942826992
