28
 energy: -51.475833023128 gnorm: 0.000831285257 xtb: 6.6.1 (8d0f1dd)
N            3.82860489478240       -3.09641356890256        0.44255481499498
C            3.30101908061915       -2.09154619093403        0.27675338632858
C            2.67942582471762       -0.83306951968799        0.08785411901088
C            3.55055476140620        0.23800847061730       -0.16851759643507
C            3.22508140823957        1.55861999613633       -0.36437819886792
C            1.97478946239344        2.17838771895873       -0.24191477655933
C            0.71708592731255        1.66871825042487        0.00912186262437
C           -0.37144425209218        2.60000819953388        0.16149356471837
N           -0.13548953876070        3.94307993923695        0.29033924942454
N           -1.65194924340323        2.28158923678518        0.12606578018742
C           -1.98216066570411        1.00926431659719        0.00081954427855
N           -3.22710336670569        0.54023447870839       -0.05974357881910
C           -3.11858951627626       -0.79706036190672       -0.10149294433027
N           -4.19922105649752       -1.58494463395982       -0.16657321520841
C           -1.75968981909495       -1.24566162654836       -0.06491538690667
C           -1.37908565254678       -2.57878582932079       -0.10230841958238
N           -1.11230781937721       -3.69989534191686       -0.13742635428478
C           -0.98939902089827       -0.06868241483474       -0.01021257100054
C            0.37425152643992        0.22761928743691        0.03055069140185
C            1.28468840222565       -0.82383831131820        0.11047619860886
H            4.60043768556108       -0.02323131782701       -0.23202660588404
H            4.04723982506253        2.22192782765098       -0.59900950583348
H            2.01176328238481        3.25163855827287       -0.38581909704198
H           -0.98042410944341        4.47118565316867        0.44713220413810
H            0.67627319633361        4.26017349052432        0.79198259421738
H           -4.10222988476760       -2.58351656365071       -0.21242002635520
H           -5.10623449776201       -1.15671683726451       -0.21041579178600
H            0.83033414025199       -1.80486674838041        0.20674251506149
