33
 energy: -58.089652611066 gnorm: 0.000868813970 xtb: 6.6.1 (8d0f1dd)
N           -3.68686548030537       -2.75747110576785       -0.79063720079204
C           -3.08396738931792       -1.81593231772476       -0.51664031471275
C           -2.38546998824215       -0.63842769374094       -0.18376885919255
C           -3.16016527163408        0.34828072779189        0.47556585811965
N           -4.39583196799529       -0.00760087709565        0.89696161499146
C           -2.78123335927548        1.68239268623915        0.65034496387202
C           -1.60556118502799        2.30354406819085        0.29275768073313
C           -0.36427382772331        1.79554737063117       -0.09253181110660
C            0.68958826639821        2.75204290698619       -0.27412034392636
N            0.37808080236416        4.09920184762373       -0.39986717781465
C            2.01680358322597        2.37560331601590       -0.21984489234430
C            2.34189895971302        1.04264798480651       -0.01336020697856
N            3.56050285741651        0.51553601247765        0.14864503003927
C            3.37804653578041       -0.80812564260486        0.27274637566155
N            4.42426081939553       -1.65270348458344        0.43009882279756
C            2.01565879087688       -1.19107125995663        0.15159185261204
C            1.56685534581950       -2.48763404167555        0.33597808515519
N            1.23190832374408       -3.58199552418785        0.49025034094477
C            1.30124982659036        0.02670469903249       -0.03505981299033
C           -0.03967600284100        0.38403309568851       -0.17277292335964
C           -1.01401429454014       -0.61964673868893       -0.50860930706953
N           -0.56509926421569       -1.65163659816057       -1.24484147000987
H           -4.73866960849325       -0.94137102545700        0.74974430679772
H           -5.00314618272286        0.67412961184659        1.31367790822744
H           -3.54017091183049        2.31754858646556        1.09053115078040
H           -1.61513693629094        3.37456196004186        0.45083282642529
H           -0.42073727275634        4.32714694007171       -0.97010664964945
H            1.17808733395921        4.68307214192950       -0.59015803350998
H            2.80262821458236        3.10989354389907       -0.31227346152737
H            4.23537788421397       -2.59066410750301        0.74116859328333
H            5.30395185752694       -1.23819293480275        0.68573613296996
H            0.41806956146275       -1.73112653828068       -1.44465569772913
H           -1.13675436985864       -2.47037525150973       -1.37942923279730
