26
 energy: -44.036119172320 gnorm: 0.000963619393 xtb: 6.6.1 (8d0f1dd)
N           -5.47978308955688        0.79000486925105       -0.00343377484229
C           -4.34578129857815        0.61779730491457       -0.00129732379990
C           -2.94557623579010        0.41230687796562       -0.00150345340513
C           -2.50832236274934       -0.91344157419681       -0.00125903399707
C           -1.21677494443083       -1.39356934672705       -0.00070943309991
C            0.03323830334017       -0.74846532893187       -0.00017887973949
C            1.16998035018880       -1.59748449681158        0.00037708543501
C            1.01753536426214       -3.00104317254129        0.00010514227248
N            0.93930199429703       -4.14692546358334        0.00085905941451
C            2.48179428700862       -1.11821647662438        0.00094935295869
C            2.69952488498135        0.23975389940641        0.00096406436822
C            3.87637237312422        1.00858238317125        0.00142976663588
C            3.50743930766942        2.34904628214542        0.00117914198025
C            2.11852561892763        2.45360343869805        0.00053681208210
C            1.56888949996121        1.15569760205563        0.00037618150190
C            0.24523864044063        0.69537295818243       -0.00018732279377
C           -0.78149496871747        1.66532851227824       -0.00071444841108
C           -2.14983711356963        1.56660475429445       -0.00125822136230
H           -3.29188521899200       -1.66185900409055       -0.00144647168925
H           -1.14821806520033       -2.47599109500061       -0.00060060267245
H            3.30382252690042       -1.82022781374578        0.00132977123335
H            4.87775922475559        0.62078686243543        0.00191170019999
H            4.18746474743166        3.18169577664033        0.00143739007376
H            1.58199029767391        3.38455930557213        0.00023252576869
H           -0.40986296476931        2.68125220376459       -0.00060064924839
H           -2.69764142320870        2.50190803297766       -0.00145936476379
