26
 energy: -47.217954284640 gnorm: 0.000680293500 xtb: 6.6.1 (8d0f1dd)
N           -4.99557220485512        0.17592737488505       -0.03788491192997
C           -3.89383269635286       -0.15068649906297       -0.01839446917340
C           -2.53600947843164       -0.52835703443301        0.01194372207700
C           -2.25533317705395       -1.83793844228517        0.41117737874187
N           -1.17410267214645       -2.52053177401418        0.14652307027589
C            0.00275488395973       -2.09383756918010       -0.21509632514551
C            0.57553686088988       -0.81702171347059       -0.04428082056187
C           -0.18393005406283        0.41990461020593        0.01072909426328
C            0.55039356093176        1.61800336597676        0.21387504267659
N           -0.08993770966493        2.85335315633738        0.38583372464313
N            1.87101430704707        1.70826240295616        0.24555238585796
C            2.58750528882215        0.62140363029017        0.08715895659207
N            3.92350587422761        0.53818305450456        0.04238421422409
C            4.19308985712111       -0.76322993721758       -0.05113968441767
C            3.05304178715245       -1.58339926982662       -0.08765768680001
C            1.97177765559060       -0.71279524254763       -0.02110627271718
C           -1.58195413340523        0.48184558765130       -0.30582024997515
N           -2.06099191478709        1.60256585928882       -0.86037434915857
H           -3.05348764887193       -2.41187474166578        0.86996729972308
H            0.66435006608858       -2.87889765519445       -0.56606600514542
H           -0.83273702828867        2.85488566142743        1.07338973326287
H            0.60933730877148        3.55654043597084        0.59445005470465
H            5.21657933517727       -1.09237452518178       -0.09731474059397
H            3.04847930744069       -2.65497751534646       -0.14099615320651
H           -3.04716036427210        1.69354421668310       -1.04510850332221
H           -1.44451639442780        2.39367328854857       -0.99000785409580
