34
 energy: -57.801024076880 gnorm: 0.000481358804 xtb: 6.6.1 (8d0f1dd)
N           -2.30354207510806        3.84535529140450        0.31860686899985
C           -2.04184370154529        2.73227290516269        0.16980711706096
C           -1.81222125252466        1.35197433611565        0.01866358196576
C           -2.98054552709010        0.62008701948902       -0.31770780075894
N           -4.07866255093117        1.34552529053963       -0.68205853505047
C           -3.13450015922101       -0.76006198261268       -0.31135322950341
C           -2.23212726214557       -1.75376778842292        0.06284695026825
N           -2.73741773644415       -3.01938435307519        0.15057462971649
C           -0.84505528029073       -1.59451697883080        0.28193062382033
C           -0.22408394106373       -2.73284750501136        0.82826616647340
N            0.15326878011862       -3.67794365239934        1.37066771833949
C           -0.01255724091594       -0.46134267608753        0.05203989050046
C           -0.46205124047633        0.92093882641039        0.12498264052239
C            0.50074431733940        1.91383413827926        0.32639256298049
C            1.87502954141505        1.69358531013767        0.29228708951687
N            2.74868350019432        2.72934953779110        0.49899041872702
C            2.31328551911834        0.40956702465793       -0.04534966531844
C            3.58533818211398       -0.12815445990997       -0.32289701753792
N            4.77848493452523        0.55241218114901       -0.35915222134684
C            3.42344027768644       -1.51141500178895       -0.56726978369755
C            2.09432652332940       -1.83651223243197       -0.45472071069108
C            1.35715652404624       -0.65963711547235       -0.12859687119407
H           -4.07442261535576        2.34402393333592       -0.56327667379564
H           -4.96848465801453        0.88575793992731       -0.75247904879482
H           -4.13148597621550       -1.11311572552217       -0.55168091256925
H           -2.16237746876080       -3.74922097627280        0.53621031031905
H           -3.73311688970187       -3.14713081194334        0.17625711524964
H            0.16425971647076        2.92664014943352        0.49768611446388
H            2.35085636257750        3.56904120942420        0.89109143656384
H            3.65936348552057        2.48441814339955        0.85265937669846
H            4.73168951046036        1.51159737273049       -0.66881863250884
H            5.54566707988100        0.03345331572377       -0.76039804066724
H            4.22177766285745       -2.18313805530515       -0.82630688604294
H            1.67993235225185       -2.80803244212584       -0.64297700920921
