35
 energy: -66.357156516119 gnorm: 0.000511417036 xtb: 6.6.1 (8d0f1dd)
N           -5.84381899227316       -1.11905041582512       -0.59028825884080
C           -4.75244636044040       -0.78436133392519       -0.43996451942278
C           -3.43623181143830       -0.36766183761569       -0.26116668926690
C           -3.00526401446997        0.98128823357573       -0.21008050674021
N           -3.82819836851528        2.06169677032615       -0.29222168500888
C           -1.60116389568305        0.99114809799689       -0.02064062977279
C           -0.68786267873433        2.00376414099620        0.25732570811016
N           -1.06090498227039        3.30774953334367        0.41199001518612
C            0.68257296607724        1.63861975760666        0.32387310403123
C            1.56353618674494        2.66883018224695        0.69805817593933
N            2.14782674627844        3.56573762516115        1.12208590317179
C            1.15205661043779        0.31929597962287        0.12881633704959
C            2.51810133701383        0.10988188209925       -0.16591776294795
C            3.30252470207088        1.21550341776276       -0.54045903509706
N            4.01958645941299        2.02208718203617       -0.94454517658338
C            3.19674138425728       -1.14447959039179       -0.29893748261951
N            4.44788854779661       -1.13035787115775       -0.80078573476328
N            2.78921674261633       -2.34523167835995        0.06363176621551
C            1.56248552364259       -2.68210751249973        0.45225145391487
N            1.48200335665470       -3.94721165980840        0.93428650220119
N            0.40251214066630       -2.06809426113327        0.33004608235853
C            0.17164252807635       -0.76105851637105        0.13352096253938
C           -1.15561722335592       -0.37363660621706       -0.00775173958537
C           -2.30734129638407       -1.20713399832794       -0.12973815041451
N           -2.24934604833467       -2.54010291216215       -0.13109650368513
H           -4.78168915212104        1.87070900278863       -0.56203277263466
H           -3.43937374929197        2.91730002884450       -0.65519698392911
H           -0.34716241348383        3.94006090136257        0.74452709796328
H           -1.99211810235485        3.48379803159711        0.75083897197659
H            4.94193518531346       -2.00330030437416       -0.85161531083265
H            4.90528778017012       -0.26870309162110       -1.04377947151124
H            0.62983587358544       -4.25873794259790        1.36306724109837
H            2.33881432514275       -4.44073498267741        1.10642310112296
H           -3.07940493891903       -3.10429500103014       -0.17851986288533
H           -1.31938676758875       -2.92019922407784        0.01874520356009
