30
 energy: -54.929529218199 gnorm: 0.000737578611 xtb: 6.6.1 (8d0f1dd)
N           -3.87285585408856       -2.52559758840024        0.18481906048288
C           -3.05042664444302       -1.72120175075491        0.11957470952836
C           -2.12523148206857       -0.66668597122752        0.02516260355273
C           -2.70151020581146        0.55530119090640       -0.43403561808080
N           -3.90245428309556        0.49912655095013       -1.04872171191566
N           -2.24311380968499        1.77830566712519       -0.26357330210246
C           -1.06047504180368        2.14714442018339        0.19885178039145
N           -1.02112027199094        3.44152825909395        0.58326821367035
C            0.14475903460513        1.39646970725554        0.23227222139287
C            1.26595447565878        2.14692950164511        0.59246475863584
N            2.15638441535989        2.81917189085726        0.89165541623600
C            0.32712906416777       -0.00794287066559        0.06541320849091
C           -0.75878268738460       -0.95942646759944        0.25650101094000
C           -0.44579900836333       -2.28364251362277        0.62061629878357
C            0.83834450643307       -2.77450305423905        0.62185413760665
C            1.85748610252148       -1.94191066735405        0.18771888340047
C            3.22641712255954       -2.14863897086765       -0.06965327778915
N            3.80753346041501       -1.06210112231100       -0.55639008204627
C            2.87346392928045       -0.08412227300587       -0.59988055352111
N            3.20652457441584        1.05608255583273       -1.22447201524799
C            1.60022558933143       -0.55909049936087       -0.11440438009128
H           -4.36276013581304        1.36647462815012       -1.26199571339854
H           -4.41347242108651       -0.36523835219614       -1.10039439969790
H           -0.17127251069852        3.86980550920461        0.90516650315633
H           -1.86420902269183        3.98137060948234        0.50584149034906
H           -1.26413738163816       -2.94169791839586        0.87244159690029
H            1.03791571585778       -3.79884247474364        0.89749317194211
H            3.78832215424049       -3.05309808158053        0.07636979630468
H            4.18390084704629        1.11780874810310       -1.46696197714811
H            2.72670557827072        1.92072709083874       -1.03462010042429
