22
 energy: -40.338556586311 gnorm: 0.000702965381 xtb: 6.6.1 (8d0f1dd)
N            3.84145176096128        2.28471961140581        0.21718597216017
C            2.85736186948158        1.70048453768582        0.14988026237515
C            1.64946732611344        0.97194946399505        0.06695973297153
C            0.43993019470633        1.63518291621409       -0.06910351813202
C           -0.79347826545374        0.96108831638062       -0.09490716333634
C           -1.96946074359401        1.71869128337510       -0.28347873105834
N           -3.19273160168496        1.41779125392924        0.07403444286938
C           -3.64144352661006        0.23898792541262        0.41707337657091
N           -3.21819420316537       -0.93243412053330       -0.02177813656447
C           -2.00254710657783       -1.23965487826463       -0.33881850481145
C           -0.81371701715447       -0.49486126687869       -0.07914699380409
C            0.40473983904459       -1.15401943263450       -0.02575192052144
N            0.62809317689543       -2.48477367059126       -0.04179268865474
C            1.94589298357605       -2.63329782343987        0.05662288946842
C            2.64673401475621       -1.41694276075526        0.13700788351484
C            1.66955072656669       -0.43176860360420        0.09075993521828
H            0.43619618453855        2.71438650556235       -0.12529655854243
H           -1.85599386112307        2.73565809802677       -0.64743254833353
H           -4.55769822205454        0.22478378009137        0.99744146152022
H           -1.85876838120059       -2.22674342665816       -0.76587050656681
H            2.37272297814687       -3.62039613610624        0.06488620905452
H            3.70824934153113       -1.28625513551399        0.21084177700261
