29
 energy: -51.201242685676 gnorm: 0.000789425277 xtb: 6.6.1 (8d0f1dd)
N           -5.52145196120719       -1.92662967661688       -0.01196847344741
C           -4.50367008880713       -1.38953171235312       -0.00580212888189
C           -3.27225198467369       -0.71337950686590       -0.00161838429354
C           -2.12218127124213       -1.52198873060092        0.00426181086914
N           -0.85588205363060       -1.24780663874583        0.00709883775321
C           -0.23099079230994       -0.05815630696518        0.00457152282329
C           -0.82360503449019        1.27733987039513        0.00320424264239
C            0.03920011065792        2.39436629125475        0.00150493852594
C            1.41172609459310        2.30060605566668       -0.00164446646886
C            2.00062290192918        1.04428063520953       -0.00120479019038
C            3.34214754155331        0.60872298910080       -0.00590212952789
N            4.45804764580147        1.36623762503003        0.02047482318849
C            3.32481697573760       -0.82416845552953       -0.00134128649659
C            4.48542106390852       -1.60157347348692       -0.01303264667032
N            5.47383949933913       -2.18918396252811       -0.03020667355534
C            2.00683392406082       -1.26236275442651        0.00335557947815
C            1.16238787011485       -0.12804489289243        0.00323534893423
C           -2.19722352366919        1.54848500491313        0.00258422886623
C           -3.30993241170876        0.70771566795277       -0.00135386883120
N           -4.53200008463545        1.29137579282534       -0.00593684713733
H           -2.32064864726078       -2.59290717420735        0.00649411711223
H           -0.41440157753911        3.37568696162006        0.00171805407551
H            2.01066043619326        3.20113870112758       -0.00272189470850
H            5.35474179215226        0.92262003218428       -0.08385362402276
H            4.39385712997328        2.36039354770535       -0.10668146616403
H            1.67593570426269       -2.28260491538997        0.00526749330870
H           -2.44666958651024        2.60514852494337        0.00312758806722
H           -5.36289212797779        0.72491072067475       -0.00597125820405
H           -4.62173535221529        2.29109346780513       -0.00173596384470
