29
 energy: -50.411948060561 gnorm: 0.000539370445 xtb: 6.6.1 (8d0f1dd)
N            5.45432485838665       -0.13798998801054        0.03926218879274
C            4.31072845674117       -0.27980445860204        0.03812638621366
C            2.91657765523308       -0.42338644128946        0.02911349944724
C            2.41299036745029       -1.73086300126071        0.05046606962921
C            1.11458748352659       -2.16305921125780        0.02842579722836
C           -0.09375885967090       -1.42166784290389        0.00252543265614
C           -1.28127891087874       -2.15013825844529       -0.01749065554042
C           -2.56667646080616       -1.59406749218470       -0.01387163594804
N           -3.66510386826395       -2.38586648062056       -0.00406297381254
C           -2.65102150887248       -0.19788657985346        0.01880525396540
C           -3.68714841574042        0.74911970952476        0.05485421546492
N           -3.23192317940479        2.00563064143654        0.08601658422528
C           -1.88931650379145        1.92845261641401        0.06500808126392
N           -1.06868623867369        2.98310423460587        0.06997652624431
C           -1.44190310160884        0.57005331808330        0.02312603847215
C           -0.15867171111653        0.03824880484191        0.00593970734343
N            0.83932892361722        0.93668953165307       -0.01759714315316
C            2.14290309528101        0.77649953711948       -0.02212369548661
N            2.83707733688439        1.94385129578832       -0.05607436089460
H            3.17350070434620       -2.50348982405043        0.07998929866900
H            0.98173576970781       -3.23839503171492        0.04066188976421
H           -1.20759441971383       -3.23025049393957       -0.02997810024177
H           -4.57453107031201       -1.97409432743352       -0.10432219995755
H           -3.56917060376426       -3.37708752361519       -0.13306878159931
H           -4.74835625318474        0.57156503676813        0.06395174726214
H           -1.43083175114933        3.91127224887691        0.19385699171969
H           -0.08532710191127        2.74973334154243        0.12197398800462
H            3.83867579522545        1.93763261004380       -0.13849603955991
H            2.33587881456344        2.80407034308347       -0.18606385477242
