34
 energy: -57.799296037851 gnorm: 0.000507495701 xtb: 6.6.1 (8d0f1dd)
N           -5.07669979229215        1.43578723615102        0.37161267304777
C           -4.07822397263079        0.87531908582192        0.24641737612786
C           -2.85792081948433        0.18933672611747        0.11585484335814
C           -2.88339670153343       -1.17875918545546        0.47834915384563
N           -3.96913663856294       -1.64012003146438        1.14589035806071
C           -1.93683990794193       -2.10027337180494        0.03654757286582
C           -0.66903651145117       -1.86153480316598       -0.46785906835211
N           -0.07472030238700       -2.86188702851954       -1.14668056864281
C            0.13682156202755       -0.67960789754857       -0.23268234883766
C           -0.39039480421691        0.64608734738441       -0.23909248974761
C            0.50860462516969        1.74814614891516       -0.10801952204556
N            0.01771972570322        3.08323628411344       -0.05615176562559
C            1.87048634952113        1.55875174557692       -0.02174870795334
C            2.39695356010718        0.27825534978782        0.00720244838902
C            3.71317958466901       -0.18854618504321        0.17828602545123
C            4.85052964392460        0.60412707833754        0.27714115629707
N            5.78533230946821        1.27409344680626        0.35054782849388
C            3.64618150217574       -1.59555619606848        0.26967534362033
C            2.33885612286936       -2.00906315814643        0.12005849006052
C            1.51849372543227       -0.86717679829771       -0.06209144667729
C           -1.78909780265390        0.93245509392717       -0.43005707321027
N           -2.11755442028590        2.04622007659399       -1.11193911109431
H           -4.74856532748273       -1.03022409248971        1.32381826684195
H           -4.09769911633082       -2.62794804662685        1.27025012557193
H           -2.25096442285099       -3.13768726814257        0.05624969391783
H            0.86583797262823       -2.74172795762759       -1.48201783014106
H           -0.52833060578052       -3.75179631064110       -1.25251160660864
H            0.78615672340526        3.72923501991762        0.08084455560249
H           -0.66418862368996        3.21787439503328        0.68290086147067
H            2.52967653936707        2.41233914173497        0.06575208450943
H            4.49331840875369       -2.23782821988986        0.43548532031651
H            2.01887247590180       -3.03158997125231        0.21883062861580
H           -3.07794381670904        2.35052611733991       -1.13111841297859
H           -1.38475542553948        2.71617647862568       -1.31126554514968
