27
 energy: -46.953927052189 gnorm: 0.000396522341 xtb: 6.6.1 (8d0f1dd)
N           -5.26395170185581        1.33593011015471        0.00600025038108
C           -4.17686022261523        0.95674327046976        0.00337159671496
C           -2.85700923843631        0.47794083106751        0.00147186849697
C           -1.84620230194141        1.45126694944833        0.00697724639352
N           -0.55078736288407        1.37605186897043        0.00458591067478
C            0.24540519111073        0.29415665403363       -0.00122509342200
C           -0.13099005080258       -1.11594207502446        0.00037906975340
C            0.89018258878221       -2.08772893570869       -0.00125231300438
C            2.23692003887996       -1.79109594679351       -0.00720301868581
C            2.61739056305343       -0.46137892904276       -0.01066801057324
C            3.84954812201288        0.24228858223576       -0.01752928869352
N            5.09626839409090       -0.26402448037618        0.00961671391628
N            3.64875143461636        1.58478502582018       -0.01720999422606
C            2.34058239329903        1.78435574087144       -0.01138809499365
C            1.61282302216673        0.56634129135803       -0.00740560063183
C           -1.45170751743898       -1.59569536131009        0.00160866505050
C           -2.67524484900912       -0.93583704276168       -0.00129898148740
N           -3.79782467249187       -1.69565399372270       -0.01260253703517
H           -2.20567030092454        2.47950458067815        0.01378951201159
H            0.58971660042432       -3.12651801307291        0.00143533837764
H            2.96601993625857       -2.58983735313584       -0.00776722557207
H            5.86262780002267        0.37730156231632       -0.09754034375257
H            5.24845537889092       -1.24443774389617       -0.14261255403302
H            1.93353813471092        2.77739797663473       -0.01288596664788
H           -1.53531457639656       -2.67815615575488        0.00179550169829
H           -4.70381883233514       -1.26002152786094        0.00770727253090
H           -3.73683174628771       -2.69724523009791        0.01153678545868
