25
 energy: -47.523237434320 gnorm: 0.000584495193 xtb: 6.6.1 (8d0f1dd)
N            5.06636911148051       -1.15958466635436       -0.42959382492253
C            4.00385652307852       -0.72645176209146       -0.35332624111586
C            2.70027456906149       -0.23709417175849       -0.24932830344113
C            2.31702806613249        1.11392175489825       -0.17159442088466
C            0.92784368250947        1.18185421102614       -0.07626805060784
C            0.01949096980827        2.22149508515195        0.20241709970484
N            0.41062205699497        3.47438890314398        0.48344926857826
N           -1.30387775132578        2.01447488264811        0.17472278241908
C           -1.77941918159080        0.80691325982239       -0.02559413320555
N           -2.97501816896665        0.66155787556996       -0.56503251166400
C           -3.69004848603844       -0.41973566413562       -0.71407370724602
N           -3.71805587744745       -1.51944334510553        0.01579522671079
C           -2.66906517388566       -1.88939853412513        0.72831792513683
N           -1.41283447990567       -1.55447037168681        0.58848094809571
C           -0.92070332244145       -0.41451481284532        0.12067353824540
C            0.42408967739087       -0.17571725383836       -0.08714795147665
C            1.54261999312501       -1.04976698237895       -0.17545129560152
N            1.47290099139365       -2.39044866199085       -0.20623902858717
H            3.00668105546317        1.93867829548864       -0.17637893113736
H           -0.30050706984042        4.16901178598604        0.63276536507129
H            1.37515578297417        3.74231217044809        0.41507245956406
H           -4.45907831428684       -0.35206818669554       -1.47946581288174
H           -2.84511386078451       -2.70419721633654        1.42569460349060
H            0.58827536069405       -2.81602311120660        0.01945598497259
H            2.31520092040827       -2.93707240713583       -0.14435278821798
