29
 energy: -51.214322210574 gnorm: 0.000577698149 xtb: 6.6.1 (8d0f1dd)
N           -5.52439856851687       -1.31723519571019       -0.13882561600191
C           -4.49803167778655       -0.79654641796712       -0.10001664267220
C           -3.23411440067717       -0.18894624755132       -0.04994173541945
C           -3.20029388824010        1.20942191926024       -0.07340335905848
C           -2.11777975380169        2.05045585647385       -0.02109417885231
C           -0.73551735310968        1.75714789334812        0.02517733144688
C            0.14302269653655        2.85156223966663        0.05678146943483
C            1.52069900292384        2.74086737100639        0.05401040568378
C            2.08220099307294        1.47635456393157        0.01335082824043
C            3.41391699687738        1.01531863309884       -0.00979210021078
C            3.40126694781868       -0.37965569127133       -0.04379500054402
C            4.50314617418128       -1.23656161801341       -0.08002934422573
N            5.38437436644603       -1.97479577084294       -0.11053692942072
C            2.04502822821247       -0.82460340576551       -0.03829272171208
N            1.58174944788065       -2.07479454953687       -0.06060594433800
C            1.21488036683272        0.33080543714290       -0.00462076570381
C           -0.17776093578493        0.41051101888146        0.01555640912802
N           -0.82047348006773       -0.77035466983304        0.04262758761090
C           -2.10256975044729       -1.05957505445211        0.04284748624320
N           -2.36805774867628       -2.38575341616160        0.12027169095351
H           -4.17367261673003        1.68323390564457       -0.12939599115628
H           -2.35168917281971        3.10813950423065       -0.03395589963761
H           -0.29621655168101        3.83919770752353        0.07740614618531
H            2.13980308682661        3.62544054504778        0.07688082126502
H            4.29551897925210        1.62940580320508       -0.00219797903950
H            0.56835483612277       -2.14052668966334       -0.05300249831720
H            2.19750992623697       -2.86868243618340       -0.09522009030512
H           -3.31628109499666       -2.71867785260851        0.14270853796130
H           -1.61216180018493       -3.03875981250050        0.22280528126199
