24
 energy: -43.004578250128 gnorm: 0.000212113346 xtb: 6.6.1 (8d0f1dd)
N           -3.59470619958346       -1.37775552538811        0.85865403652949
C           -2.59004616009096       -0.70291134262265        0.26802890194820
N           -2.82671766490070        0.57807204216860        0.01658372138798
C           -1.86047013675418        1.43449568384303       -0.30113983164813
N           -2.26859249385171        2.60487968012180       -0.82627113222015
N           -0.55475058908662        1.36088487059180       -0.05689020009826
C            0.18772046019257        0.27986838296843        0.04322598171801
C           -0.30590629359012       -1.08675827345277       -0.28141791213242
C            0.61805833079767       -2.07722871610599       -0.67321302085690
C            1.97257933524883       -1.89754937929452       -0.53026013641494
C            2.45344636419760       -0.69777816647765       -0.00325090579737
C            3.73345389609365       -0.18823112999262        0.26835144853495
N            3.68013537922693        1.07407627355272        0.71746848209826
C            2.39655395480939        1.43250342628239        0.73392007433130
C            1.55828644123978        0.38359766789316        0.29996098710109
N           -1.55522804101136       -1.45960782033451       -0.09902927337013
H           -4.46311437819156       -0.90472603101851        1.03055161487602
H           -3.53213889258789       -2.37730991514369        0.92773561664096
H           -3.25244607391794        2.79043976973601       -0.89784593469268
H           -1.59729978436396        3.34372106899097       -0.93468549366202
H            0.21318102419713       -3.02004453830004       -1.00728033856258
H            2.65833504857442       -2.69250330991260       -0.78808127018862
H            4.67985275915032       -0.68270932778754        0.14255504291694
H            2.10003799290255        2.40941934088252        1.06818039786192
