29
 energy: -55.202530621064 gnorm: 0.000563157759 xtb: 6.6.1 (8d0f1dd)
N           -5.30645029505158        0.11163442121536       -0.31352691416727
C           -4.16206730408904        0.01278782646559       -0.22491565664791
C           -2.77238320446443       -0.12921019856191       -0.10694190243264
C           -2.29201357833358       -1.42287536074772        0.27120772092311
N           -3.16139743677971       -2.27436291729856        0.85472308438596
N           -1.10664439326695       -1.91293431358376        0.03003181047843
C            0.05064152310270       -1.35126984545026       -0.25629280929393
N            0.95805879332364       -2.19482165724468       -0.74342471118035
C            2.24242867997018       -1.89837851182897       -0.71835784614158
C            2.69724727279677       -0.75261552573057       -0.10108091271211
C            3.96905095830364       -0.19315276622424        0.21965990201697
N            5.17489763219475       -0.75119740142953        0.05783403843149
N            3.83566382750789        1.03735524803269        0.75740760167413
C            2.53752362824492        1.32239780993885        0.77694710564524
C            1.74490411364565        0.26641519334036        0.27069159688219
C            0.37740404886062        0.05468604186968        0.04123920837764
C           -0.57023613292777        1.09393275430851       -0.03634866394575
C           -0.07990424887838        2.41408775495063        0.00890036580051
N            0.24334078902447        3.51863194757201        0.02779363237543
C           -1.97421035421280        1.01588164442479       -0.28052510545509
N           -2.60564734051545        2.15827895401163       -0.63252462188741
H           -2.86014916642786       -3.22342468801395        0.99381110244201
H           -4.13864909540897       -2.04605602441246        0.91926853770019
H            2.90138638238827       -2.62958301353723       -1.17121886762972
H            5.27590278065632       -1.65840315051259       -0.35887202020093
H            5.98643477275129       -0.21813095163345        0.31667934901638
H            2.20883688891987        2.26098283506556        1.18065817353712
H           -2.10020653168716        3.02674857929450       -0.67846390629393
H           -3.60724756164597        2.16715347811677       -0.72641744899731
