28
 energy: -46.680171865200 gnorm: 0.000493118241 xtb: 6.6.1 (8d0f1dd)
N           -0.32896975440780        4.30729727499464       -0.04366984733696
C           -0.37092813817789        3.15784214191157       -0.03116093365642
C           -0.50327107434202        1.75670474232350       -0.01511551204281
C           -1.81131267459911        1.26343464986469       -0.01998650801454
C           -1.99688272329481       -0.09382797164177       -0.00286308959292
C           -3.13634598660946       -0.94925332051238        0.00691349345912
N           -4.43867416522364       -0.58100190890006       -0.05751641278836
N           -2.77021677753573       -2.23780656191425        0.02972337775477
C           -1.43053810156179       -2.27000371101724        0.03311194271195
C           -0.85963969232950       -0.99052207429759        0.01475455089009
C            0.46985295677480       -0.51820189530437        0.01146200620163
C            1.49095131078904       -1.47656709874583        0.00514297166259
C            2.88072243008885       -1.38680441982356        0.00918647158892
N            3.57201591691188       -2.56284473260873        0.03694402614134
C            3.64796250680137       -0.20837562252411        0.02978920248704
C            3.18737070579835        1.08952243584796        0.03744918871051
C            1.89178460964567        1.57592937713765        0.02064193149797
C            0.65007010312939        0.92020881709079        0.00485006263349
H           -2.63855390246677        1.96019792745552       -0.03767246721535
H           -5.11642114358036       -1.30321281878687        0.11802071877926
H           -4.68683739392503        0.36270298244058        0.18264286137387
H           -0.94134829899935       -3.22732961870884        0.05607814522494
H            1.12203722025515       -2.49534805246411       -0.00315471952034
H            3.08517943509727       -3.42810005697379       -0.11634429673910
H            4.56572973309126       -2.55733483156370       -0.10911291625944
H            4.72179798997166       -0.34668180786784        0.04047058736473
H            3.95745279444627        1.85144822953473        0.05308422997935
H            1.81956621155235        2.65748701535330        0.02129880740471
