28
 energy: -46.683306285545 gnorm: 0.000786398790 xtb: 6.6.1 (8d0f1dd)
N           -4.88528416869132        1.59827464418206       -0.01567344474616
C           -3.84231797502742        1.11018968636409        0.00057873678055
C           -2.57338245873150        0.51152090692388        0.01239274599454
C           -1.48671586076017        1.38797018540409        0.02305187353487
N           -0.19581046279225        1.20568656327494        0.02745722580817
C            0.50237739639109        0.04585082778920        0.01750999778494
C           -0.00209288069632       -1.32236443280052        0.00239711110008
C            0.92779882758712       -2.37133202433707       -0.00878327002160
C            2.30220819613174       -2.19343313600830       -0.00593988839230
C            2.80418078709402       -0.90878123716067        0.00873535103316
C            4.11260185666460       -0.36283905301673        0.01481648882482
C            4.02749837452570        1.01480854093393        0.02967077460826
C            2.66638975914961        1.39065618563563        0.03367973977769
N            2.12069328668957        2.60891825497647        0.04707469195903
C            1.88306361915391        0.19086338026875        0.02052224938689
C           -1.36687940419890       -1.68248322247900       -0.00133905582868
C           -2.51943386302556       -0.91841473236681        0.00656018423772
N           -3.71400306926606       -1.56763106100231        0.03189051009376
H           -1.75821607401891        2.44410772007994        0.02795548366956
H            0.54088918333409       -3.38117627722428       -0.01976215321096
H            2.95800716770526       -3.05217795497222       -0.01500533411299
H            5.02152436335970       -0.93687794937838        0.00850587065392
H            4.85481918629137        1.70088409378591        0.03711716676485
H            1.10296503363651        2.61037087544326        0.04617728003634
H            2.67824290016383        3.44428517074227        0.05512278794033
H           -1.54378133119260       -2.75347654933584       -0.00947784927950
H           -3.74660423532639       -2.56683399948041       -0.05778334290632
H           -4.57064137455085       -1.04691274664173       -0.04390077129098
