27
 energy: -47.761824980769 gnorm: 0.000493320794 xtb: 6.6.1 (8d0f1dd)
N           -4.68791622044630       -2.15205166898045       -0.00251537766416
C           -3.79392181833917       -1.43164447930297       -0.00237158618561
C           -2.70391891869721       -0.52772139078057       -0.00219542314484
C           -1.44965626688212       -1.13243248379838       -0.00115302256507
C           -0.15580302395197       -0.61249972981015       -0.00074328885469
C            0.89779894381088       -1.55762130673512        0.00028658319937
C            2.23265185938182       -1.20342539056422        0.00086242529635
C            3.23615741152062       -2.19734641720494        0.00262642071249
N            4.05737889645727       -2.99798427154180        0.00346748101887
C            2.58564216685838        0.15778448970078        0.00049504753977
C            3.76529014323154        0.88670817643333        0.00098747315150
C            3.36228273798395        2.23315260733138        0.00010455463454
N            2.04165100381805        2.39422245463303       -0.00088522798104
C            1.51807482530279        1.14793874988420       -0.00062424007149
C            0.16851661665267        0.80091213959634       -0.00129333070169
C           -0.75154883390708        1.87411349184249       -0.00240235750393
C           -2.11423794369241        1.91064995902770       -0.00318274156095
C           -3.04366819216979        0.84666279011866       -0.00311980154862
N           -4.35157833170649        1.17477709449422       -0.00401373999822
H           -1.49805227174143       -2.21728294869433       -0.00052465600910
H            0.64259576942595       -2.60819365805421        0.00069629082167
H            4.77027036538695        0.51258451533066        0.00181330302750
H            4.00598896364895        3.09526264053693        0.00013682892583
H           -0.24331090671317        2.83181208790219       -0.00262215373333
H           -2.56610396416586        2.89582994693162       -0.00396538239518
H           -4.63377712897741        2.13902399936166       -0.00459242437199
H           -5.06076294778942        0.46034035254188       -0.00407453313797
