29
 energy: -55.211485085196 gnorm: 0.000745174232 xtb: 6.6.1 (8d0f1dd)
N            4.75201156409236        2.22136436457156        0.17633128062416
C            3.87713859590307        1.47532628390841        0.15916943477344
C            2.85182263045326        0.51223134684763        0.12176819685292
C            1.53949998873902        0.94641127830790        0.15583382709278
C            0.33734212640022        0.23743319041913        0.06529688586575
C            0.17623235175474       -1.21937264005332        0.08803940894137
C            1.24614296923567       -2.07069385134653        0.36086167820760
N            2.54523361704706       -1.92891668476590        0.22744502205095
C            3.26484329010094       -0.85706862776253       -0.03112719689505
N            4.53188463927839       -1.09708239574590       -0.40288098264877
C           -1.13041074419114       -1.78713178931638       -0.01758148976969
N           -1.30076022984362       -3.14268803431194       -0.05860676864618
C           -2.28509419213326       -0.98373729916388       -0.05985558265684
C           -3.55155420996779       -1.58527474096603       -0.17287826757721
N           -4.56075041163112       -2.12379917008970       -0.27981118812538
C           -2.15738557904568        0.40638288339389       -0.00888852501510
N           -3.06331622755930        1.37588656559397       -0.02212414908876
C           -2.31215395908125        2.50581823479066        0.02402804741653
N           -2.87817327376200        3.71611278068706        0.01382619465965
N           -0.97668833259061        2.33797155380570        0.06769743038702
C           -0.82691233108259        1.00581806921431        0.04898852526932
H            1.39242311467284        2.01938709825386        0.21474006377067
H            1.00111493006035       -3.07199427716594        0.70676551512295
H            5.18482535637457       -0.34232834773162       -0.53232777232986
H            4.84256578206833       -2.05150250110516       -0.46764646024011
H           -2.23639652675911       -3.47603450566634       -0.22889425303817
H           -0.55129736430838       -3.73885120164679       -0.35876789536447
H           -2.29953360296391        4.53014793388272        0.10638839974464
H           -3.87900096085888        3.78171907066313        0.03415207991436
