26
 energy: -47.232732401856 gnorm: 0.000592046252 xtb: 6.6.1 (8d0f1dd)
N            0.81035827017326       -3.93800599125276       -0.44048584901037
C            0.54862279229225       -2.82416697921529       -0.31998804137574
C            0.16195172128668       -1.47959836107114       -0.19421631678522
C           -1.23568188014957       -1.20251871596782       -0.16332519537042
N           -2.13115686296880       -2.20940181892867       -0.29016411864448
C           -1.61103805722278        0.11669380775179        0.06492584638387
C           -2.84948390503927        0.78457720823783        0.21884810133625
N           -4.09990548641598        0.24379383251895        0.28546608065062
N           -2.68205945716183        2.12361280249513        0.25977237532379
C           -1.38179385856142        2.36516223129988        0.14726023413810
C           -0.63116065462611        1.17724149208242        0.04033088420315
C            0.72901719335916        0.93044006315535       -0.14195010906790
N            1.53376006968816        1.92515485890453       -0.49018608827115
C            2.83228969751059        1.97633361162646       -0.51647650134708
N            3.72440621127602        1.26446952085910        0.14815629286435
C            3.51550570953822        0.02770695798801        0.55427549600493
C            2.45600472541434       -0.82753301158959        0.28673544268852
C            1.14119525637698       -0.47786085180005       -0.08099206078832
H           -3.08422703919267       -1.98044948456871       -0.51293739338159
H           -1.79270638560611       -3.11904629936463       -0.56242313285846
H           -4.81341520808695        0.92465814666995        0.50186035524373
H           -4.19987733323169       -0.63859734522442        0.76219047374929
H           -1.00565154297005        3.37027942655282        0.16012665909865
H            3.24344104514510        2.81590355064200       -1.07190791596563
H            4.35316259777776       -0.38874909619429        1.10664364681682
H            2.60850885579526       -1.87152269390621        0.53643129246425
