32
 energy: -59.167630141161 gnorm: 0.000922460984 xtb: 6.6.1 (8d0f1dd)
N           -6.06034893575714       -1.91807521198189       -0.09763173853456
C           -5.03600277264261       -1.39581631153028       -0.07377436899314
C           -3.81185888246381       -0.72564954288125       -0.04666288207332
C           -2.53895584928951       -1.31030965979391       -0.03817524949471
C           -1.57517596283111       -0.29121236851450       -0.01208942232157
C           -2.28268414308432        0.96784590149239       -0.00269576469645
C           -1.54986787528684        2.13628886857184        0.02909764756296
N           -0.23374477720236        2.13536136015803        0.03259465402607
C            0.46898001859308        0.99171351231501        0.01238034446367
C            1.85514730898734        1.24637921899493       -0.00556687257215
C            2.15385745587429        2.63207267941349       -0.00801356422048
N            2.49461966939078        3.72994211721043       -0.01199989832724
C            2.98258293238010        0.38997957593523       -0.02463252978140
N            4.19560403007392        0.98550004981167       -0.06462513082345
C            2.96283345819254       -1.02012273525220        0.00016137563197
C            4.22266267530281       -1.64646429599344       -0.00117456074119
N            5.25173691737546       -2.16368318435869        0.00219037364576
C            1.84182186367930       -1.89369738619519        0.02744061936976
N            2.11770300146381       -3.22311830824664        0.04805471331347
C            0.49477610613379       -1.54582513157361        0.02112636368966
C           -0.16471959655576       -0.31682517681639        0.00526478808137
C           -3.67437184831303        0.68723584628765       -0.02434291984592
N           -4.68441201204033        1.57590994360203       -0.02067914113150
H           -2.36969129185684       -2.37115947244529       -0.05375937134841
H           -2.00771795642949        3.11834974893858        0.05038613798257
H            4.26261816519021        1.98925274804763       -0.07206305218463
H            5.03555873931117        0.43248042832640       -0.06893279990492
H            3.06700612035560       -3.55123822300453        0.07233427775286
H            1.37189500517539       -3.89257974802724        0.09261410480739
H           -0.16977231402906       -2.40144413632472        0.03054224900869
H           -5.63521572256356        1.25190120604209       -0.05406801379297
H           -4.49792528093183        2.56184014209227       -0.02248903964933
