30
 energy: -50.126150828846 gnorm: 0.000578879207 xtb: 6.6.1 (8d0f1dd)
N           -0.82516829066603        3.80259259139854       -0.13405801430948
C           -0.48795137945802        2.70196273270776       -0.07242551894119
C            0.00897486728894        1.39189834402822       -0.01816955800056
C            1.41864649823600        1.26548512612862       -0.02506238379075
N            2.21578321143474        2.36496736855762       -0.04510351424210
C            1.93913286236868       -0.02257136501391        0.02493461542896
C            3.24221542468898       -0.55774327042752        0.06054465894595
N            4.44052576848208        0.12299488609352        0.09239104575511
N            3.21520662139856       -1.90262519255799        0.01836754687157
C            1.93571465946786       -2.27132880833439       -0.02524612734365
C            1.06198203202941       -1.16881993110984       -0.01025696194597
C           -0.34048820719667       -1.05722019182537       -0.01627273793259
C           -1.09388539773006       -2.23911112871259       -0.05140671252952
C           -2.45859457361555       -2.45990207991791       -0.04686220787684
C           -3.50050663160985       -1.55823118659400        0.00431992431582
C           -3.41265803420767       -0.15855420199347        0.05764742684495
N           -4.58955408156389        0.52585541284766        0.15854935369298
C           -2.24828176599307        0.60928328600971        0.05093755803153
C           -0.88711587402965        0.28729769384914        0.01074649878018
H            1.78405390062252        3.25785563046420       -0.22485683713405
H            3.16809752366690        2.24443472025862       -0.34507166111656
H            4.47571221004356        0.90784633195789        0.72764320005397
H            5.22042595032265       -0.50983773474590        0.20930737959272
H            1.69573620369185       -3.31831065555258       -0.05647146321636
H           -0.49172413777695       -3.13700989317371       -0.08810419259008
H           -2.75368576640954       -3.50192033564504       -0.08595995629858
H           -4.50280805006945       -1.96786837574685        0.00650431204907
H           -4.59001356126640        1.52518790577160        0.05466983954328
H           -5.45684687904379        0.04315715716363        0.00574835248730
H           -2.44263502450635        1.67720298161422        0.08522132597442
