30
 energy: -54.933882284514 gnorm: 0.000779522382 xtb: 6.6.1 (8d0f1dd)
N           -5.28784970038720        0.76876365263062        0.11790473913113
C           -4.16640846628049        0.51221458393054        0.08067419095662
C           -2.78841511070945        0.24170908041555        0.03418443325929
C           -2.41064715867055       -1.09546693211667        0.04597816025241
C           -1.14216651120000       -1.64796298328597        0.00245351466576
C           -1.08450606808938       -3.06168898843833        0.00801487406191
N           -1.09222116699948       -4.20950968721862        0.01228048223886
C            0.12889945023323       -0.99703008978619       -0.02597437199087
N            1.14704961116365       -1.83719270363418       -0.05135890074751
C            2.42674190311134       -1.43496335092633       -0.03672443159485
N            3.33826733818533       -2.42474109218927       -0.09677087790171
C            2.74008055941403       -0.07801076396587        0.02604948459624
C            3.93194232387953        0.67634227786441        0.06435985515952
C            3.61450691569252        2.02452351557591        0.09815725865891
C            2.21720243336071        2.16427639890702        0.08117282406289
N            1.46431617236718        3.27156725831239        0.10369145420929
C            1.64661214695350        0.84914051334503        0.03805339932776
C            0.31568348324535        0.45518553533551       -0.00123807362062
N           -0.60604178048111        1.43823542719105       -0.02292255900084
C           -1.91474203664234        1.38115501073601       -0.03244508272065
N           -2.51989488417923        2.59182374309256       -0.10245103498095
H           -3.22861987140391       -1.80763728282544        0.08749810877054
H            3.00284437013559       -3.37208158417280       -0.09448564262581
H            4.31907209737404       -2.23133824922631       -0.01860954248521
H            4.92959166021482        0.27491370308482        0.06540460036099
H            4.31765980336400        2.83602374416379        0.13208728058930
H            0.46593323622255        3.10177532744404        0.05781804613866
H            1.86902434579056        4.19038679055052        0.10597947191288
H           -1.95765397604797        3.42231441063346       -0.14036975998476
H           -3.52218459071738        2.66743759797271       -0.09105306059950
