32
 energy: -54.361832724316 gnorm: 0.000600735417 xtb: 6.6.1 (8d0f1dd)
N            4.06447117037892       -1.72013928179327        0.84488751923060
C            3.21548273438475       -1.00151400782778        0.55201059578746
C            2.20489524253687       -0.08270923140299        0.19865109355411
C            2.66071009957379        1.07779727022656       -0.47955380563036
N            3.93312656939984        1.07285500743048       -0.94161231373498
C            1.92412771953398        2.25731092037376       -0.61671939365465
C            0.62643651983429        2.51911537564359       -0.23754401773726
C           -0.42377302803684        1.66825547504768        0.11618067447671
C           -1.71583342175408        2.27298718540118        0.29478505776257
N           -1.80209734571181        3.65503227226188        0.45659160557124
C           -2.86525293312254        1.52279299470396        0.20307257807590
C           -2.78920694872306        0.15398679059441       -0.05429777028263
C           -3.76841095858402       -0.81060883488564       -0.28186783144881
C           -3.13864500684791       -2.04038521060203       -0.44821331121512
C           -1.75509113121724       -1.89087286908081       -0.28613064349862
C           -0.82233860532897       -2.90208240476050       -0.47953252808375
N           -0.04060164595850       -3.73795874593916       -0.62640565016465
C           -1.49619381712374       -0.50455258768182       -0.02957059366780
C           -0.33023241418041        0.22915804855084        0.16108056434844
C            0.89282359803276       -0.44520132011478        0.53659010214982
N            0.74132168728233       -1.51981198965697        1.33292655671249
H            4.32169937638691        1.89779659742796       -1.36123208966218
H            4.52223666039178        0.26844684975889       -0.81056220717188
H            2.46965671851965        3.08754347534565       -1.04863091787970
H            0.33183787196634        3.55276833131924       -0.36738562223654
H           -1.12395510706154        4.06678072785343        1.07955485049307
H           -2.74029610346725        3.97518265738906        0.64527878701693
H           -3.83094270333191        1.99923764227082        0.30417885404035
H           -4.82559390260140       -0.63224734853840       -0.34647712157978
H           -3.62472527737204       -2.97280239081971       -0.67580342102524
H            1.51505023461902       -2.14700271898683        1.48854699741807
H           -0.18451405121829       -1.87236700970844        1.51232448433652
