28
 energy: -50.684400876721 gnorm: 0.000978317563 xtb: 6.6.1 (8d0f1dd)
N            5.20896339403272       -1.21228386216595       -0.36284702704975
C            4.16279583573815       -0.74371392898577       -0.25077078615853
C            2.93925621435963       -0.10223275824488       -0.11611705386889
C            2.76885114552599        1.30408438233755        0.04716260290877
N            3.76519623408686        2.20610165453807        0.14385183022387
N            1.47985252622960        1.67529777162344        0.14227020054204
C            0.76740699244454        0.54124577727797        0.06501425900500
C            1.63433562903408       -0.61760559717457       -0.11639280812733
N            1.16107714412729       -1.84550910245211       -0.27310996149956
C           -0.14212906504051       -2.00125108058255       -0.17980738549831
C           -1.09839682150860       -0.99148656424549        0.03838445372682
C           -2.47267877059422       -1.34970565740381        0.22576335638776
N           -2.75618961655907       -2.63702399180095        0.52466138589815
C           -3.57732240346823       -0.51031610785802        0.05807012610831
C           -3.61402421733814        0.86583294968956       -0.15934496109554
N           -4.77858174344017        1.43476072309957       -0.53989829234290
N           -2.65457263527437        1.77590024733061        0.08285691288292
C           -1.39593080585460        1.54141549381101        0.27186583884277
C           -0.62048975276308        0.37021945691975        0.11276073411126
H            3.52571839600525        3.18109833621468        0.12685120806080
H            4.70441926462759        1.92185456587423       -0.07153781544807
H           -0.45745411000047       -3.02386401545915       -0.35165365045667
H           -3.71061047384774       -2.93273619786963        0.62297364989718
H           -2.02446220610055       -3.30011363153962        0.69803423183013
H           -4.54266677791776       -1.00513046843120        0.06938165872363
H           -4.80476424971472        2.43473200202538       -0.63212731924656
H           -5.60275637684991        0.89108400676632       -0.71511369729814
H           -0.81188146833938        2.42469446480550        0.51460924964077
