31
 energy: -54.649896041840 gnorm: 0.000579197070 xtb: 6.6.1 (8d0f1dd)
N           -2.85925737336835        3.51321688589277       -0.37213672136121
C           -2.36816594866580        2.47827780290595       -0.24425217720729
C           -1.86316341999957        1.17629462131845       -0.08820751140487
C           -2.84622063494328        0.23179069079262        0.34500825370128
N           -3.99045764100063        0.71869083927492        0.87803945032108
N           -2.82068153328835       -1.07700652692547        0.24541277099045
C           -1.81844461725777       -1.85220083160244       -0.15438429944220
N           -2.22679296309027       -3.10026502531149       -0.47963874362372
C           -0.43510613796580       -1.55781801147735       -0.18946615841779
C            0.35960652498019       -2.66971949775288       -0.51504311923535
N            0.89867073616404       -3.63505650796140       -0.84216731837036
C            0.20981324153907       -0.29284215232800       -0.04174223665993
C           -0.47105434222496        0.97934748102037       -0.23897079273890
C            0.30429068987705        2.11830570889114       -0.53078784452386
C            1.67918789917192        2.12725419348401       -0.46824499877942
C            2.33503981286001        0.97412032836629       -0.07127907358412
C            3.70345336122138        0.68390366589962        0.16523847544371
N            4.73448241787318        1.55214197247337        0.07335157195349
C            3.79094596301976       -0.66857113210934        0.57203043185626
C            2.53479505457980       -1.22356054960435        0.56125649598136
C            1.59006521399821       -0.23347149269381        0.15076047653000
H           -4.72816027184788        0.06614207641871        1.07625592990858
H           -4.18429211396011        1.70506286938710        0.86674370289921
H           -3.20122522049130       -3.31620283736843       -0.37263942514921
H           -1.56593410724079       -3.81929837832296       -0.71555349534837
H           -0.21619486159634        3.03292826361033       -0.77260013548281
H            2.21875125753539        3.03853001840325       -0.68648141823829
H            5.67572321523526        1.20571303427568        0.13193504442852
H            4.58652823372311        2.45473489616158       -0.34200688286609
H            4.70167217817451       -1.16656710963075        0.84952948948087
H            2.30420154008529       -2.22727647748688        0.86175879163348
