33
 energy: -58.900930365261 gnorm: 0.000527026798 xtb: 6.6.1 (8d0f1dd)
N            5.74748974660764       -1.06906712292101        0.23375787557843
C            4.66758055305259       -0.68049170319832        0.14614907385957
C            3.35133927259430       -0.18591692689507        0.03602439508566
C            3.26234559729112        1.18489935117567       -0.29235976416661
N            4.40073479281030        1.83276863346302       -0.62456528476361
C            2.08944774243480        1.95577702438458       -0.21505552753474
C            0.80231911304621        1.55080615840753        0.00092941604277
C            0.21197742656401        0.27215061590671        0.03862313120935
C            0.91833075217616       -0.98713111892196        0.03124857680236
C            0.18390188070194       -2.17198880204764       -0.15562657518638
C           -1.19170898885732       -2.20368409151618       -0.25309762181784
C           -1.90346116637431       -1.02693671666160       -0.10383967015384
C           -3.29245146536906       -0.76510215177057       -0.10487882448052
C           -4.31796837734717       -1.69539831600572       -0.23457411818039
N           -5.18292495051993       -2.44765192355852       -0.34640796075487
C           -3.46452306628024        0.62624055144830        0.04072172734822
N           -4.64527328018013        1.27595433373363        0.13316145194353
C           -2.18329564392438        1.23883130771866        0.12185164647539
C           -2.04963481700736        2.61525722853006        0.26068919430947
N           -2.01877455944866        3.76380402319176        0.36810511499862
C           -1.19870793522047        0.22408560840678        0.04303253429202
C            2.32324738385821       -1.12563750878461        0.28293000308877
N            2.73908994310636       -2.31948421360948        0.76008874012879
H            5.28681608365450        1.35641537420930       -0.62132239273522
H            4.38664782590581        2.82580296617908       -0.77404811688644
H            2.23946353748362        3.02122541226169       -0.33804937453349
H            0.08863433263976        2.36144599275302        0.06349718506882
H            0.71006457442521       -3.10520851062831       -0.29462472432820
H           -1.70737647308247       -3.13605604701278       -0.42946453075402
H           -5.49867232009788        0.77511444140276       -0.04019183962643
H           -4.65902996081150        2.28063971519943        0.12486721085876
H            3.71750862499501       -2.48659978675271        0.92662365825728
H            2.07558226387383       -3.01507814238677        1.04774881055654
