28
 energy: -50.683571171013 gnorm: 0.000558634702 xtb: 6.6.1 (8d0f1dd)
N            4.77668737067739        1.63054861975441       -0.08566519596016
C            3.81210789695200        1.00143364707129       -0.06633810453088
C            2.69169462652387        0.18327531587906       -0.02398804834395
C            2.71674350672351       -1.23816930827711        0.09712352221880
N            3.82793790001389       -1.99984786737858        0.13577894731305
N            1.49180606863005       -1.78810379641532        0.13805285991574
C            0.62780237829953       -0.76280709988023        0.04053015432929
C            1.32867072996864        0.50775977952182       -0.07598668816068
N            0.69918550124001        1.66470527692951       -0.21857791484546
C           -0.62167543827544        1.65961399678955       -0.19985285137337
N           -1.19702764876417        2.92958866688311       -0.31620129677650
C           -1.42760432589227        0.50450923960255       -0.03755162845656
C           -2.82724771822222        0.60845529501882        0.22644309725126
N           -3.30525592910350        1.70075898567020        0.84113174699668
N           -3.76770790235132       -0.24220289800045       -0.17571380333596
C           -3.71893233586771       -1.51729226705655       -0.40086580663545
C           -2.69033574429543       -2.41526546793973       -0.07835006303681
C           -1.38269420854167       -2.05513683760556        0.13544481249897
C           -0.76982618057656       -0.78917196855065        0.03239477643888
H            3.72686758179705       -2.97603279033383        0.34868905689583
H            4.72079060983994       -1.55706963323303        0.26301602388831
H           -1.96486559247977        2.98879184834785       -0.97175865309136
H           -0.47318889811125        3.60760135303055       -0.52232531761949
H           -2.67787297324727        2.44754401340721        1.09636576526774
H           -4.29365841219932        1.76672368382379        1.01224002579181
H           -4.62852716581610       -1.91898271088717       -0.83831507912023
H           -2.93574074157786       -3.46784531253038       -0.08579847936876
H           -0.66423600004333       -2.84931476784139        0.29913264384873
