30
 energy: -54.933636733072 gnorm: 0.000775265764 xtb: 6.6.1 (8d0f1dd)
N            5.53643469637927        2.24714318412634       -0.13307914486296
C            4.57443862916292        1.61719307816229       -0.10189314411285
C            3.43750093762742        0.80860831527261       -0.05825147273898
C            2.10679779226142        1.21411341861729       -0.07291732724150
C            1.28689628028559        0.06588271241332       -0.00855645644551
C            2.14420211479083       -1.08327097164064        0.04857577022357
C            1.59344358219141       -2.35412161374823        0.13891924159468
C            0.22344415056992       -2.48593919174184        0.14749837518585
C           -0.66164105489792       -1.39427702622932        0.06618601140442
N           -1.94449212711409       -1.74394757171625        0.00959451041182
C           -3.02813173638460       -0.99382556875386       -0.06565443282659
N           -4.16263098640547       -1.71880784744001       -0.18779949750743
C           -3.15811916377232        0.42043334544627       -0.01200635692527
C           -4.45310396572664        0.94860930169429       -0.03775554931232
N           -5.52083227984179        1.38397071579568       -0.05875685237797
C           -2.07606769616977        1.34334264962401        0.06768958839143
N           -2.38661241011642        2.65521331786937        0.16012522761672
N           -0.77853264710991        1.11852379811885        0.04438159724314
C           -0.11046750231310       -0.03217541241295        0.02244808215098
C            3.48213551403750       -0.61906750680537        0.01835680210781
N            4.60590635989839       -1.35571997786403        0.05099512030982
H            1.75836250003005        2.22753346855188       -0.12627273847793
H            2.21890241650636       -3.23482679896358        0.19359711153693
H           -0.23086773542927       -3.46327032887679        0.20003218786838
H           -5.06555758021963       -1.27985304952068       -0.22837976768849
H           -4.08027139590675       -2.71960474459737       -0.19853203327689
H           -3.34024993824750        2.97164969560578        0.16413270379296
H           -1.63002841566167        3.31486999541784        0.19308817979227
H            5.50389922306179       -0.90356344482752        0.04646511114375
H            4.56040346891391       -2.35587189937725        0.12445824132019
