34
 energy: -57.801128165939 gnorm: 0.000735205480 xtb: 6.6.1 (8d0f1dd)
N            4.50088279266958        1.96711240106646       -0.22853332886815
C            3.46949825324304        1.47149115232846       -0.11519738823850
C            2.19135765331360        0.89827813286281        0.01526634754532
C            1.06860190977654        1.71831871456494        0.09352942584931
N            1.26099826565568        3.12144842359915        0.01822791565364
C           -0.23621683029080        1.16621857527311        0.24299959852095
C           -1.36472439903015        2.06697278191824        0.34687597237930
N           -1.17088633782595        3.26012446724931        0.94849590858180
C           -2.61349303746163        1.84576298680127       -0.22115878459239
C           -3.24887879304271        0.64025793417473       -0.52823000429901
N           -4.45073203201786        0.69958761972344       -1.16220633240574
C           -2.85954488214311       -0.59667556774877        0.00246046034605
C           -1.64694183427357       -0.91519299022245        0.57480569692032
N           -1.58554012780502       -1.96122138908342        1.42307096266603
C           -0.38730460321237       -0.24719360241454        0.27770083825413
C            0.73014629889105       -1.06558710327216        0.07182137230889
C            0.89449282324515       -2.46901914607455       -0.14000111827573
C           -0.09366190328616       -3.43022133942987       -0.29605220838038
N           -0.92081702025833       -4.22617192534461       -0.42583455074656
C            2.26864437421273       -2.71486691918525       -0.31555131577688
C            2.97464391765652       -1.52606875634384       -0.21989960186856
C            2.05198876980058       -0.49826182998844       -0.02094343849458
H            0.72892201525778        3.55029669254212       -0.73088090905839
H            2.24556316544434        3.33990252972738       -0.09593723180503
H           -0.23187596809169        3.53576417781124        1.19830860161867
H           -1.89659271291613        3.95488911313114        0.91653145355826
H           -3.21970035475870        2.73355043393361       -0.36587694782172
H           -4.73570943575219        1.55160699697746       -1.61040866039692
H           -4.89244742033765       -0.15315591701257       -1.45528244157457
H           -3.62424833687150       -1.36244416996837        0.03413268306226
H           -2.33885301795894       -2.62968163522567        1.43953001161036
H           -0.68017874587239       -2.30903824997630        1.69709931831251
H            2.68811849119901       -3.68647787523937       -0.50867910565155
H            4.03703085394122       -1.40504923865476       -0.32194070203306
