30
 energy: -55.715614460271 gnorm: 0.000887977900 xtb: 6.6.1 (8d0f1dd)
N            4.75540783547945        1.93500365009821        0.55001539317764
C            3.75490556669278        1.39901387422194        0.37512637515780
C            2.52338041255017        0.73840741260345        0.15392423031741
C            1.42167475392451        1.59091798889782        0.06557351541645
C            0.06506426916047        1.36179292059540       -0.10278765749603
C           -0.79377844083192        2.51328630412376       -0.22720425053406
N           -0.27460275347952        3.77078031829629       -0.39332158772256
N           -2.10816308636329        2.47547891342852       -0.13161836430513
C           -2.70101049067994        1.30324146077549        0.02848029180775
C           -4.06229448798977        1.02018673367083        0.16071932840298
C           -4.20296796380147       -0.35892396797672        0.22366131067950
C           -2.94021604784545       -0.98309938020803        0.13404498723084
C           -2.74758132794942       -2.36239102001171        0.17732550308322
N           -2.60540176576529       -3.50477014538763        0.21613661719864
C           -1.96368840219945        0.03470794307696        0.01680394374291
C           -0.57185256042453        0.04868135420941       -0.07305103694756
C            0.11195359645820       -1.17945160818915       -0.15216569550005
C            1.45461423240555       -1.50356950036703       -0.16872934203174
C            1.74250512317090       -2.88223623197601       -0.33589351832552
N            2.01630205786543       -3.98694118969471       -0.48033858298722
C            2.59409394342952       -0.66547229407443        0.00576573146379
N            3.80549030259540       -1.24959422812887        0.03826448597374
H            1.69614557295282        2.63347108251236        0.18371549596529
H           -0.98554865244319        4.47291000928793       -0.52918278521003
H            0.56537533657310        3.89884212541367       -0.93162649020982
H           -4.85086329406453        1.74545898953231        0.20204377770886
H           -5.13009713289728       -0.89396842568600        0.32792842217057
H           -0.54524047927862       -2.03907448748802       -0.22717204417173
H            3.89254618783545       -2.24899076653927       -0.05166313733623
H            4.63528191592022       -0.69724388851696        0.18151518188062
