26
 energy: -48.034278954519 gnorm: 0.000726009015 xtb: 6.6.1 (8d0f1dd)
N           -5.10833728465973        1.88219985104847       -0.00017174199020
C           -4.14465170622637        1.25852236100516       -0.00192307372301
C           -2.96818439261886        0.46895811978247       -0.00046960962147
C           -1.77952701490097        1.19732586122398       -0.00041558435442
C           -0.44918451211103        0.79394592236573        0.00004698880201
C            0.53816999264175        1.82791889636507       -0.00005389127697
N            1.82875761306799        1.66379478591208        0.00022010863431
C            2.27956700117402        0.40784186077258        0.00069184762778
C            3.57394014083498       -0.13067995552346        0.00089169872676
C            4.80026166114836        0.53213537933266        0.00025169806552
N            5.82433663062733        1.05383906945629        0.00223503140345
C            3.37868467166578       -1.53800639659812        0.00138569033460
N            2.10676211145953       -1.89807641770201        0.00130451745133
C            1.39266725872677       -0.74619375588800        0.00084340068766
C            0.01309808817197       -0.57644686631353        0.00050247054394
C           -0.78913315212074       -1.74492443245698        0.00060308278498
C           -2.13934880182130       -1.90804462323357        0.00040766303831
C           -3.16820988397273       -0.93243910845471       -0.00004252904532
N           -4.43410392232084       -1.38835714304294       -0.00015417425777
H           -1.92720931845406        2.27314256708171       -0.00083031730681
H            0.20418242569156        2.85818524527109       -0.00040818138106
H            4.15621901733625       -2.28123655035689        0.00161814127859
H           -0.18676313205765       -2.64616655503960        0.00088257135836
H           -2.49981805770578       -2.93026966529010        0.00054742406621
H           -5.21106244818010       -0.74730428509848       -0.00045891336486
H           -4.62066152729614       -2.37607233831892        0.00012434461804
