30
 energy: -50.117673449535 gnorm: 0.000440751235 xtb: 6.6.1 (8d0f1dd)
N            0.56652048215091       -3.75623809470290       -0.90442570144647
C            0.84061545664557       -2.68214779234629       -0.59667811018800
C            1.32678826543946       -1.39539628868508       -0.28176205888939
C            2.72732330240834       -1.34198104244545       -0.38887807724171
C            3.58119709710436       -0.30096746853975       -0.14507447618921
C            3.19199045152180        1.01012201712696        0.23124060615239
N            4.17837236333811        1.85904746607996        0.63467528734749
N            2.01386314776008        1.57082745415647        0.13811665432805
C            0.79955679844196        1.06664799051008       -0.08317213178462
C           -0.18191264138395        2.02441419806985       -0.32380591632638
C           -1.54825737723384        1.74653886386570       -0.31960401396946
N           -2.46015127260101        2.73941604839419       -0.56257376137901
C           -1.94370247135435        0.45364208427750        0.03568855142938
C           -3.20716065156563       -0.12056846311509        0.27615502683859
N           -4.42507173515697        0.52550656622523        0.25811393761943
C           -3.01453429955188       -1.49546414801834        0.52881902880295
C           -1.67193458554203       -1.78639898195765        0.45541577277362
C           -0.95832588473188       -0.59410246190113        0.15282221616067
C            0.40318728927723       -0.34947220003942       -0.02577864945238
H            3.18962976413923       -2.28313934981984       -0.66755656865394
H            4.64392102785417       -0.48686876470267       -0.22262700369001
H            3.89759877048924        2.76115852237696        0.97646863542735
H            5.08353827331438        1.50513104728719        0.88312160333313
H            0.15133501699229        3.04042387828480       -0.47577626297803
H           -2.09549342436749        3.58392942639885       -0.97463786614659
H           -3.36002563067628        2.44693747576231       -0.90720944598325
H           -4.42065587427590        1.47201700030578        0.60948827779402
H           -5.18776308045610       -0.02858856298683        0.62042652830615
H           -3.80124665845291       -2.19092578792540        0.76001777548565
H           -1.23893353444729       -2.74845472553394        0.64714670261908
