34
 energy: -63.401503093712 gnorm: 0.000944567595 xtb: 6.6.1 (8d0f1dd)
N           -3.39139914190189        3.40868795604532        0.92711031503161
C           -2.79604807205662        2.46807804866266        0.64828755386127
C           -2.10985441124220        1.27225782020701        0.32329192104811
C           -0.76021152044086        1.40914297051827        0.04885382965197
C            0.26942657421624        0.46696887258455       -0.07939999642275
C            0.10018571479785       -0.97035761321294       -0.05895404932761
C           -1.13770495027100       -1.59415531403294       -0.45637659509940
N           -1.03600933840364       -2.75531332425334       -1.13013541938388
C           -2.45121317175905       -1.14010255670027       -0.21162559245946
C           -3.47203915415142       -2.07745169563587       -0.48230008040601
N           -4.30748671677890       -2.84042948202372       -0.68909449014903
C           -2.90970388862054        0.10184757455420        0.28238543688199
N           -4.20230432261815        0.20589367127014        0.65027673058624
C            1.21564854612493       -1.79327442591694        0.20846475303253
N            1.07984337849498       -3.16974803706112        0.40022744989729
C            2.51776477745346       -1.25564314427154        0.25964715924617
C            3.60623969385491       -2.10033403405738        0.55667352981299
N            4.47344798630871       -2.80762455336000        0.81460934935619
C            2.73250118902184        0.09282092966873        0.00385999432226
C            3.90499939070114        0.86194272769875       -0.07302208050562
C            3.53087590179393        2.17079211660869       -0.28033057871251
C            2.11274623468076        2.26502684116339       -0.32552265658488
C            1.43941377815713        3.46476695907895       -0.54895322406523
N            0.91251247023688        4.47144139776309       -0.73828042868188
C            1.58626609223835        0.97176866344708       -0.15895916497373
H           -0.42193770043755        2.43828304535608        0.04301796546534
H           -1.86326201513067       -3.24541726173010       -1.42896933133997
H           -0.13239953308174       -3.17144986709131       -1.28625048777751
H           -4.83176148250428       -0.57153829346280        0.53769521236607
H           -4.58046076253188        1.10606547226363        0.89729914752218
H            1.92155677970244       -3.60835019792335        0.74985615071087
H            0.25580310818794       -3.46489197115622        0.90321149608778
H            4.90617621328204        0.48482141843205        0.01447214645331
H            4.19072665817625        3.01103820036825       -0.39919539464511
