26
 energy: -47.226627765119 gnorm: 0.000778648305 xtb: 6.6.1 (8d0f1dd)
N           -4.45248453030301       -2.27472400043176       -0.26686841154103
C           -3.58838506677666       -1.52639416828257       -0.17712929507476
C           -2.54144507060902       -0.57772410899205       -0.07429558317046
C           -2.94177362474235        0.77804490781468       -0.01858143207141
C           -2.16075606233481        1.87509707857258        0.15629103235429
C           -0.74243726333224        2.03313019121799        0.22508676198617
N           -0.35730723012748        3.27683334433130        0.55227203319353
C            0.24920716280978        1.05154069025660       -0.03240844246221
C            1.62119230021258        1.43537274897572       -0.21942784654993
N            1.97813940652657        2.77423898732026       -0.45578680144867
N            2.66348156358910        0.63488106689276       -0.17259642745619
C            2.44816691566500       -0.65798967296675        0.00868816939013
N            3.31976002707814       -1.66399307394669        0.10389203979990
C            2.53212713952969       -2.74395113323380        0.16760210880633
N            1.21204620666625       -2.54896297478760        0.12522956246420
C            1.09965648477387       -1.21002515825082        0.03997914893005
C           -0.02113974701951       -0.37985925690412        0.00292119258295
C           -1.25389014526922       -1.05766258213787        0.00192259398570
H           -4.01080322421786        0.94655310973588       -0.07403121345954
H           -2.69516531018573        2.81423538844194        0.25168790771430
H            0.63082369743336        3.47608483409093        0.65864564339617
H           -1.04357637597591        3.96243486642937        0.81571217233848
H            2.98388325658329        2.81418434108186       -0.58485976189350
H            1.49546632127736        3.19727199307924       -1.23953161787821
H            2.94668443831180       -3.73210743452642        0.24860800944173
H           -1.13025932756300       -2.13550651688077        0.02162884932219
