31
 energy: -53.853151966482 gnorm: 0.000723051202 xtb: 6.6.1 (8d0f1dd)
N            5.69342044511435        0.12198748360030       -0.17692962315555
C            4.55075047216905        0.26211405779793       -0.11209767934527
C            3.15941817363113        0.40202513401782       -0.03914236443151
C            2.64605790661414        1.70149533445993       -0.10857027907215
C            1.34480754142299        2.12667569886812       -0.06179751432471
C            0.15110670401176        1.37102565623592        0.01939439892043
N           -0.94901293112075        2.11709111053227        0.06335690159139
C           -2.17727979971936        1.59234774318603        0.06978832112335
N           -3.20437721132640        2.50077102094759        0.13573649504278
C           -2.36748401491104        0.22126685376351       -0.03399839882370
C           -3.49194248672847       -0.64766817186561       -0.09174017853731
N           -4.80201093990345       -0.24930120446007       -0.13060128397255
C           -3.03585695743138       -1.96935055702989       -0.05314004677001
C           -1.64129292359522       -1.96839677415911       -0.00521286581469
N           -0.77544453517890       -2.99721985629934        0.00138292364049
C           -1.19473590490135       -0.60623007772334       -0.00978571798335
C            0.08969014391823       -0.08698033299298        0.03779723269391
N            1.10070040055560       -0.98463494654943        0.10058251283145
C            2.39599507485837       -0.80445385653917        0.10067791112033
N            3.11327932283393       -1.94994183962610        0.25705604877179
H            3.39887829015289        2.47672860754831       -0.20394933206021
H            1.17177262801831        3.19301484879950       -0.11388345854508
H           -2.89527406602530        3.43462468772057        0.36116168562908
H           -4.04557605561331        2.20195339378043        0.60182147938542
H           -5.46690073216962       -0.97010497440304       -0.36688465512236
H           -4.98098085594819        0.63999390718653       -0.57081185631988
H           -3.66327171334138       -2.84179194571171       -0.07445691301430
H           -1.08340967254357       -3.93248070630606        0.20035127871088
H            0.18811625211457       -2.70300596688120        0.13606030355938
H            2.62979552558607       -2.82999325435670        0.24261852864701
H            4.11237558955604       -1.93726173424089        0.14614721122487
