28
 energy: -51.508208336419 gnorm: 0.000665396145 xtb: 6.6.1 (8d0f1dd)
N            5.21468290760973        1.50822959746996        0.62934162549310
C            4.26700151972792        0.88266406669196        0.44550453977426
C            3.10330564428573        0.14634958555681        0.22149334871451
C            3.00379727437899       -1.22872521120146        0.03132038906464
C            1.65323499558880       -1.58006903426098       -0.16496564397784
C            1.21697218242385       -2.88957412271244       -0.36384729671192
N            0.88083546204302       -3.97915774854744       -0.52440873482349
C            0.87746178215732       -0.40010520221687       -0.10531676991994
C            1.79157875444084        0.68999133714808        0.14969943044229
C            1.32195585405452        1.98226318490659        0.28142332844148
C           -0.03138825870538        2.22665304395636        0.12329537443362
C           -0.95038811875841        1.19749335912953       -0.10469342849282
C           -2.33369095880305        1.54264042174267       -0.38849290271847
N           -2.58316060545979        2.71231731909050       -0.99420166963511
N           -3.39405081669539        0.86413901665652       -0.01739360904304
C           -3.42399055367846       -0.40984629521087        0.34177366828867
N           -4.44652488748929       -0.81227702063679        1.10741752160872
N           -2.63851152513361       -1.37738035926840       -0.14622746585315
C           -1.38977641913963       -1.24636450379279       -0.46278515895766
C           -0.50738819468260       -0.16038788953720       -0.19599173452073
H            3.82491998993464       -1.92301415166999        0.03084710600460
H            2.00508696897740        2.79345012129096        0.48748340253653
H           -0.39172758442873        3.24070989732619        0.22128330232460
H           -3.53933193110332        2.96703429130416       -1.17318551425784
H           -1.83731308290028        3.30547946247553       -1.31020337694473
H           -4.57109980840152       -1.79549533905251        1.27288855768727
H           -5.14265377983953       -0.15043925427197        1.40019867795445
H           -0.95276341370248       -2.13863179586654       -0.89840304281329
