30
 energy: -54.947225919765 gnorm: 0.000641246708 xtb: 6.6.1 (8d0f1dd)
N            3.45479066610993       -3.63889377738825       -0.14330492339342
C            2.61834668922144       -2.85623736452799       -0.08066434621926
C            1.55918540928846       -1.92901610079790        0.00294912953279
C            0.25414235429629       -2.37602053334241        0.15044147393889
C           -0.84923546933891       -1.50935550478356        0.20705526081111
C           -2.12677318100288       -2.13332168768651        0.24729988073684
C           -3.35902761020477       -1.62374390917081       -0.02281830071683
C           -3.62981668038450       -0.25550374905696       -0.32231179423949
N           -4.75789303584663        0.04919835637510       -0.98986955851963
N           -2.92571965572642        0.76059931983981        0.11141975498247
C           -1.69529596754554        0.81713282142426        0.56887039512098
N           -1.42912799703854        1.84206087140489        1.38453534901814
C           -0.61988867756821       -0.09219117556308        0.23061926446591
C            0.68240337423372        0.37291310870298        0.05244092776252
C            1.28500588040050        1.65202178352702       -0.08356798420568
C            0.71502486765553        2.91183708454928       -0.12419340145868
N            0.26313884040252        3.97469317785531       -0.15002701554235
C            2.66956433877995        1.39169023536042       -0.28030847357553
N            3.64128305716619        2.32125125815987       -0.41239349411639
N            2.95804788919369        0.08235779405789       -0.25919317652654
C            1.79608204210185       -0.55127845361533       -0.08202420825457
H            0.07713932687983       -3.44173937974675        0.18122002865115
H           -2.08840595117261       -3.20491380666836        0.40646621265745
H           -4.19779606656922       -2.30429142983328       -0.07762331686349
H           -4.95241020747146        1.01195954729707       -1.20252420168930
H           -5.37368111290820       -0.66957922404715       -1.32369424463024
H           -2.12839077381637        2.55586589760999        1.50800550233963
H           -0.47921070637660        2.06151826254895        1.63433336485426
H            4.54612188339349        1.99114290090030       -0.70007935977136
H            3.38198142454715        3.26644722601504       -0.63612527774948
