30
 energy: -54.925267423447 gnorm: 0.000605758900 xtb: 6.6.1 (8d0f1dd)
N            4.12044845415834        1.87273968305258       -0.63929244455368
C            3.25451154654265        1.14004088270127       -0.45169432472834
C            2.22716605146056        0.21054829065947       -0.20783080503063
C            2.61578978390113       -1.01511428305407        0.42626586287872
N            3.72963407848658       -1.02952180988395        1.17921570449358
N            2.04390033950908       -2.17614128620918        0.20301169434410
C            0.83629387856853       -2.43984207043009       -0.23589880556417
C           -0.30768567068342       -1.64469003755593       -0.18462593236109
C           -1.61047996200860       -2.27943992860473       -0.13624679948541
N           -1.73427554044413       -3.64387776172956       -0.23689343263669
N           -2.73669650878051       -1.62767511594985       -0.02385038476109
C           -2.70059950569898       -0.29951993359502        0.11634869156951
C           -3.75134053832825        0.58821904206069        0.28949727344636
C           -3.21573600461883        1.87334724483516        0.42096498975345
C           -1.82717772216188        1.83450514897310        0.27808747646067
C           -0.96950614909895        2.91452365506693        0.45060619133724
N           -0.24076215596863        3.80015240954693        0.57388560601355
C           -1.45460865648424        0.46295626879840        0.07238070863448
C           -0.26922688255963       -0.20411885156131       -0.16500507278214
C            0.92296119961078        0.53426595481661       -0.57919882693266
N            0.72134511322636        1.60953276511581       -1.34995721784212
H            4.30633613321361       -0.20926668810819        1.25612027609548
H            4.06983413099564       -1.91340057962766        1.51661388832654
H            0.73077830884643       -3.47530130077108       -0.54229759585845
H           -1.00589457039404       -4.23327635625529        0.12675394558151
H           -2.67429964305606       -3.95959969395931       -0.05194507648393
H           -4.79035921194182        0.32883534575481        0.34447810480419
H           -3.78021496611637        2.76970732125061        0.60860948767613
H           -0.21654174426470        1.93802672245027       -1.51560853781282
H            1.48014775188938        2.24899017331519       -1.52995465548188
