30
 energy: -50.923825872733 gnorm: 0.000490934942 xtb: 6.6.1 (8d0f1dd)
N           -3.31510302675104       -2.98762215091990       -0.45173309485457
C           -2.59039877246508       -2.10312406987888       -0.31585863053498
C           -1.78453562995921       -0.96300940439531       -0.16674077280612
C           -2.45241118513209        0.28333754966628       -0.18810105920898
N           -3.78052988464497        0.34822638728068       -0.40644792991344
C           -1.68546783603482        1.42645462018709        0.06347186771165
C           -2.03779013290477        2.76621654124722        0.24212838887910
C           -0.86953486277416        3.48693612194530        0.51105010261433
C            0.21594094192634        2.63206040059694        0.47525122856267
C           -0.25046697331694        1.32584955468245        0.18446961945629
C            0.42923770323652        0.11211662364736        0.03682677803307
C            1.82947502860994        0.13036142652593       -0.20248179393071
C            2.35009917455121        1.32734483641171       -0.74467952504626
N            2.87050158790842        2.20054767066252       -1.28452806805686
C            2.81273384102829       -0.87301156680789       -0.03603401574999
N            4.11432751139386       -0.52467349933773       -0.22228097357297
C            2.58096672638305       -2.19588566192357        0.37159256240177
C            1.37780706938416       -2.85608110355420        0.47207918942866
C            0.09455185960819       -2.39302018690981        0.23353087486769
C           -0.38643435916362       -1.09722690944614        0.02397307734923
H           -4.25206875159303        1.23208077745887       -0.35109620984990
H           -4.31949950427299       -0.49387445795245       -0.51675849674950
H           -3.03015978300271        3.17942703795628        0.20630738908753
H           -0.82658018393833        4.53975506472311        0.72263506750565
H            1.22857321908993        2.91155347118502        0.69376598319263
H            4.82092666553497       -1.23783174006800       -0.22430890541757
H            4.34791766282657        0.37766656326598       -0.60016402294833
H            3.47265666857523       -2.78074451964323        0.56045531102390
H            1.44493894296236       -3.90422998785404        0.73603838369239
H           -0.67559268176519       -3.15471810785145        0.27197712613368
