27
 energy: -47.753514690368 gnorm: 0.000970978513 xtb: 6.6.1 (8d0f1dd)
N            5.92578689399054        1.04078012384168        0.02987993666696
C            4.86244516393699        0.61050134618723        0.02718679947965
C            3.55418636333440        0.07438976073621        0.02400560806771
C            3.43447709311738       -1.31053628531351        0.25515595718969
N            2.40586312863220       -2.06504285596587       -0.00895194279579
C            1.16858241206534       -1.74383290481858       -0.28315953492006
C            0.46389011136910       -0.54387298597602       -0.07138102538737
C            1.11537866432882        0.76956024315333       -0.05284055561861
C            0.30878496721891        1.92040127445300       -0.05389899745715
C           -1.06986789038254        1.87979496389339        0.00740920251387
C           -1.70967732625512        0.65148578484974        0.02681985111282
C           -3.06807606579935        0.29358771811721        0.06139031130981
C           -4.16514782039684        1.14809485945214        0.09168292786500
N           -5.09068468400626        1.83200908695281        0.12447491492420
C           -3.13921766776531       -1.13161450637926        0.06247657488395
N           -4.29170726863111       -1.83882396870570        0.06399748717294
C           -1.84019217443968       -1.64843463076732        0.01667572953247
C           -0.93461893734273       -0.57955036491246       -0.01835046471542
C            2.49879671926602        0.97334215449481       -0.12367109518282
H            4.30780836816335       -1.84442864418457        0.61432889498564
H            0.58466440903617       -2.58528771529781       -0.64297973108402
H            0.80150279691569        2.88151335949023       -0.08270459873280
H           -1.64474493788610        2.79381796454811        0.03762604481614
H           -4.26693822948043       -2.83363455824115        0.19627652150555
H           -5.16126534428898       -1.35820644722428        0.21566230908497
H           -1.60230958690462       -2.69538182894841        0.03266047612253
H            2.80284342160375        2.01045910516450       -0.22357706493978
