28
 energy: -46.675039003911 gnorm: 0.000846952377 xtb: 6.6.1 (8d0f1dd)
N            0.01025661651279       -3.55766185186440        0.91236055390844
C            0.40324861447695       -2.53030386381978        0.57669471005758
C            1.01819263195297       -1.30753260983519        0.23485742510357
C            2.40081073923880       -1.43574450588786        0.16099483125794
N            3.35992926698187       -0.58095694108096       -0.12028591229316
C            3.21938188654635        0.73986551343898       -0.18299136322021
N            4.37259136246786        1.37760326756429       -0.50459872095027
C            2.09902572028821        1.53616905785137        0.10956542011319
C            0.74849543985301        1.20656634570876        0.22277228761667
C           -0.14484836472614        2.28591799163327        0.41750661643835
C           -1.50833525127715        2.15005526426237        0.34974904033489
C           -2.04578315757318        0.90446380515713        0.05476457857675
C           -3.36855592186826        0.46084891525236       -0.13844622071049
N           -4.49321573714618        1.22199936184708       -0.12139246852155
C           -3.31984254013020       -0.92743481156937       -0.43069066981072
C           -2.01854043198797       -1.35414525466297       -0.39153498533344
C           -1.17491542176869       -0.24144092066546       -0.07889807769608
C            0.19695745768480       -0.13575612669582        0.09059805649180
H            2.78421875931888       -2.44186938472668        0.31807314861580
H            5.17853066179691        0.81493462712371       -0.70895989057784
H            4.41593993812993        2.37442493816685       -0.59955013276545
H            2.31432057483105        2.59808784762151        0.16342042098814
H            0.28185674502319        3.26226350060558        0.59714695808711
H           -2.14471687410878        3.01317568583292        0.49322031301176
H           -4.44419960586721        2.14383481261229        0.27635295454769
H           -5.38257956742860        0.75469215179390       -0.08583161001188
H           -4.17994281000047       -1.53359672066153       -0.65031027208188
H           -1.69017607962162       -2.35325776310353       -0.60055795557663
