30
 energy: -54.929621468520 gnorm: 0.000821530511 xtb: 6.6.1 (8d0f1dd)
N            5.07388201026873       -1.71492873863728       -0.50690635039002
C            4.06292077165627       -1.19248903487654       -0.35657579891167
C            2.80941083016662       -0.56610396061230       -0.16530414674181
C            2.82260695383660        0.81209820910388       -0.02832941390529
C            1.74233682163609        1.67501104309400        0.11281367852251
C            2.09689623479603        3.03763657577294        0.23529261890932
N            2.38261231359867        4.14608113613459        0.34091942184506
C            0.34326689457897        1.40112072901773        0.08611348769333
N           -0.47111420389879        2.44769193310467        0.10208408998972
C           -0.30206190949168        0.10612010802128        0.05952423223840
C            0.36331943247498       -1.19133518743987        0.09497843226863
C            1.70647448354932       -1.43737344986606       -0.08341234262543
C           -0.48884220896230       -2.36992558351378        0.24040823695202
N            0.07420047905674       -3.60418679603294        0.43515601439588
N           -1.79184633369319       -2.37835770682743        0.15015897931266
C           -2.40850673765467       -1.20130322567228       -0.01998491168890
C           -3.74287255802925       -0.88747529236330       -0.14261243586292
C           -3.78928241727238        0.53097095700421       -0.18783913815562
N           -4.90790804138201        1.28566616078827       -0.25660846246818
N           -2.57806722238607        1.09435131233775       -0.10094045202006
C           -1.68578872178096        0.06709464057952       -0.00880088433026
H            3.79864724378200        1.28542845061170       -0.04616448052224
H           -0.09246866969600        3.38180160601969        0.13066093809582
H           -1.49544699230220        2.24861360767864        0.03956188822708
H            1.98593941315945       -2.47858589025075       -0.18898042883986
H            0.91437003756155       -3.68852519966906        0.98094047428700
H           -0.61497127535138       -4.32435178611594        0.58825071458522
H           -4.58066213864675       -1.55221107093381       -0.18692196519758
H           -5.77351062870850        0.84525464879194       -0.51106737123086
H           -4.80650163086683        2.27031144175016       -0.43010312433184
