26
 energy: -42.430829143359 gnorm: 0.000525412320 xtb: 6.6.1 (8d0f1dd)
N            1.95162296822300        2.87698451785070       -0.45419163482539
C            1.20749184905215        1.78550796219035       -0.17058646264019
N           -0.10674328133266        1.99354750090155       -0.05280822505771
C           -0.94572986174145        0.98761221910213        0.12846246236666
N           -2.14359906772023        1.33257957030301        0.56946409847377
C           -3.28087192478674        0.70037467617148        0.58045171150135
C           -3.64909345000875       -0.45968331071579       -0.10010227542732
C           -2.75869265247037       -1.40416868867960       -0.59563200181166
C           -1.38332285569688       -1.43063064661362       -0.45934038868735
C           -0.50904018795843       -0.41913861247269       -0.02612539857875
C            0.86337403061015       -0.61361918658006        0.09426167435706
C            1.67697738681194       -1.77623948555341        0.21707803756347
N            1.23105605523083       -3.07345345284564        0.32382729593463
C            3.01236089086709       -1.36814710059417        0.19506732882038
C            3.07178881832199        0.01664913858728        0.05750732329065
C            1.76604354704922        0.51511650289199        0.01595780024856
H            1.48550747544247        3.76758148261253       -0.44597960151268
H            2.95052961259999        2.83928175067962       -0.36723600565016
H           -4.05310939143984        1.21625088217155        1.14685693807243
H           -4.70624116890654       -0.67033776243764       -0.18764170545401
H           -3.20050965002798       -2.27295008860037       -1.07059795679131
H           -0.88920791102303       -2.31958907394008       -0.83339991033307
H            1.92288397392683       -3.73394367814221        0.64567205933906
H            0.32292624071298       -3.19200679120318        0.74744956118948
H            3.85881820451796       -2.02680627116366        0.27362040759476
H            3.97726594954633        0.59451640637971        0.00231328201711
