26
 energy: -47.261411326360 gnorm: 0.000383993286 xtb: 6.6.1 (8d0f1dd)
N           -3.95619563438218        2.35209951373098        0.51344648146341
C           -3.02525405919336        1.69797801170218        0.36912583865774
C           -1.85175170272303        0.93740565526598        0.18604599781789
C           -0.61580084640102        1.57229098344676        0.12216277398532
C            0.59435059161025        0.88403289222261       -0.02915476587119
C            1.79849574458676        1.67513956993105       -0.22591083466760
N            1.67904678047262        2.84358055487223       -0.87881748191433
N            2.99262349989334        1.41953761370420        0.23860986466450
C            3.50219520164531        0.27102477395619        0.63209261447182
C            3.06749681353237       -1.00127330349799        0.34818845694857
C            1.78846275209212       -1.38748054545397       -0.10053198187342
N            1.58124142512672       -2.66413457658583       -0.40496776151380
C            0.61631440890196       -0.53750488852883       -0.09618102607542
C           -0.63815837011648       -1.16510954792713       -0.13070224055578
N           -0.94833053141108       -2.47577143857915       -0.26420643433665
C           -2.28492997069402       -2.50183798425700       -0.18558286211962
N           -2.89278158434872       -1.33597112860269       -0.01268061976296
C           -1.88207281116499       -0.44968265415070        0.02856565091861
H           -0.59589538818162        2.64710559668525        0.23831999681633
H            2.50088149620742        3.41156009982661       -0.99532779106622
H            0.80346178635318        3.14276257436226       -1.26855329227639
H            4.45308390617382        0.38174870923320        1.14299415605454
H            3.76276666786664       -1.81029176401638        0.53418719569305
H            0.58358762393270       -2.96916823922790       -0.47783160355828
H            2.33144621523969       -3.32825651285747       -0.30440061346344
H           -2.83267063952555       -3.42249490905779       -0.26775591603797
