33
 energy: -58.875074514876 gnorm: 0.000749956106 xtb: 6.6.1 (8d0f1dd)
N           -5.12442764996337        0.15006901052195        0.74584772660277
C           -4.00833981342057        0.27097805192917        0.50283908853423
C           -2.63077277656691        0.37570971667809        0.20897790505717
C           -2.04142116639647        1.60271028134870        0.46542132385257
C           -0.80451793456497        2.02213800285644       -0.01045390007652
C           -0.58111121057718        3.41877371876797       -0.01058623868601
N           -0.41727962642937        4.55415838873598       -0.03014485942122
C            0.21809865489216        1.20784684745141       -0.54336615225446
N            1.12121209893284        1.78379843962378       -1.34568539895585
C            0.40604492366748       -0.18946153177199       -0.21254692117895
C           -0.65955648502678       -1.14981657259098       -0.20035778445053
C           -0.33809577943779       -2.53308758079088       -0.05699376408426
N           -1.36487358954039       -3.51422564856846       -0.02409710665199
C            0.96814792356578       -2.95823382220881        0.06500008287481
C            2.00824331416698       -2.04416609591292        0.11725798563812
C            3.38117687717698       -2.20225457427495        0.34056518334772
C            3.94790231073624       -0.94271067521718        0.42356490818927
C            2.95999605972552        0.03857765070771        0.21498101722111
C            3.19942839424864        1.40255730934034        0.33174217077331
N            3.40428424495243        2.53479434260953        0.41469178383571
C            1.71838217290991       -0.63128925675271       -0.00056099515859
C           -2.03890387672760       -0.78692987570100       -0.36345748652382
N           -2.86861304841449       -1.63288734280873       -0.99220631153145
H           -2.66474413633432        2.35415452072174        0.93417206239054
H            1.92988948910048        1.26192126004132       -1.64400588182057
H            1.17032361966989        2.79018563460263       -1.41001526060438
H           -0.96429271744249       -4.43584585427807        0.10631021150698
H           -2.04712304175234       -3.34323812390036        0.70712779472588
H            1.17667356255340       -4.01459382542181        0.16991915061973
H            3.89262539740582       -3.13790287489332        0.46596225737901
H            4.98101656150009       -0.72232345022433        0.62499209900766
H           -2.52602299348339       -2.55190911919284       -1.24362373047103
H           -3.86115335172623       -1.45639763752728       -0.98426700548647
