29
 energy: -50.416981173725 gnorm: 0.000678140884 xtb: 6.6.1 (8d0f1dd)
N           -5.48281033793760       -0.36560524661732       -0.19605909545006
C           -4.41094767819499        0.04906231251111       -0.13452069457301
C           -3.11099620221351        0.53947544132817       -0.06359496180902
C           -2.70643625973843        1.88477935353079       -0.00756555729672
N           -1.38801396753964        2.02318916810156        0.05040854087390
C           -0.85675155316848        0.76454903725248        0.03167733183705
C           -1.91413921125099       -0.20813190544397       -0.03898899963025
C           -1.61788751543499       -1.56198800903497       -0.09719427453390
C           -0.29813649487131       -1.96363350491018       -0.04240297096425
N           -0.01035411187233       -3.32244198378739       -0.07355219360671
C            0.77055281362011       -1.01714125453488        0.09180563830152
C            2.03733269039412       -1.56351455127501        0.40657133892784
N            3.24816841868453       -1.11497508201969        0.30505350174108
C            3.62959251464804        0.11398084120513       -0.07216571401585
N            4.93885275697179        0.17759277315294       -0.41437281418548
C            2.87541271473226        1.27995006744612       -0.05165140735637
C            1.49324455215542        1.43927377234768        0.09714475691881
N            1.02986616948514        2.68323209034814        0.19985277960371
C            0.48912623735005        0.39071199353895        0.06356861738416
H           -3.34701729132505        2.74916664894461       -0.00498591913199
H           -2.40981630988873       -2.29303328851470       -0.18388277989521
H           -0.81100448554007       -3.90025557951856       -0.28088785161700
H            0.81675235333082       -3.60294419353813       -0.57439209377813
H            2.01436773044707       -2.57903412286667        0.79485345020247
H            5.49443156669220       -0.65092160785341       -0.29355913698253
H            5.39335145593612        1.05852117534522       -0.56824379359848
H            3.43614716143995        2.20226860650669       -0.16054470667819
H            1.66674813177292        3.46069741184271        0.16024273023815
H           -0.00990280048452        2.80009302841203        0.18348421857425
