32
 energy: -59.191924972489 gnorm: 0.000555766025 xtb: 6.6.1 (8d0f1dd)
N           -4.85515091429698       -2.25933669161819       -0.02709573276811
C           -4.07478193191902       -1.41329240422530       -0.01838252734923
C           -3.14678114185647       -0.34879596801159       -0.00469798454243
C           -3.74092970923392        0.92769121907894       -0.00563529660332
N           -5.09034262104476        1.00023777583093       -0.01951635600589
C           -3.05041380482933        2.15436282899531        0.00959144692132
C           -1.70664490374835        2.38401899085180        0.01663526771082
C           -0.58558941263428        1.52495960372413        0.00872028615329
C            0.64808027994107        2.21066692675013        0.00812842905747
C            1.87802049737331        1.58444626703393       -0.00048876531184
C            3.06514874442572        2.34759742573863       -0.00176721614017
N            4.01175733908623        2.99509887678449       -0.00361323598102
C            1.90233001126768        0.18373275979642       -0.00806479328059
C            2.92170789260452       -0.77509114814215       -0.01873416047722
C            4.30405141471209       -0.62459172340391       -0.04013049338569
N            5.45350216779717       -0.58440661825523       -0.06951634923630
C            2.24633586606484       -2.03036406371669       -0.02327253502488
N            2.83874838349395       -3.24154859878545        0.01230916030993
N            0.91876876297704       -1.88433926279720       -0.01706095248591
C            0.65605053753649       -0.54731943467425       -0.00561231367606
C           -0.59811111363934        0.08450052081509        0.00265011756653
C           -1.78140950677354       -0.75037544879055        0.00717874054235
N           -1.56404923551617       -2.06105560274092        0.02035110981772
H           -5.65373453751222        0.16701744468242       -0.02974932925601
H           -5.54714197278532        1.89434620048294       -0.01949799641770
H           -3.68748098739864        3.03020817590796        0.01439229145926
H           -1.44129790685271        3.43471368824022        0.02720942383188
H            0.63221511853106        3.29119219634200        0.01384405009999
H            2.27872762986028       -4.05932732600717       -0.15020012148579
H            3.82962397955719       -3.29506996649743       -0.14770963740844
H           -2.33906697585128       -2.70470654703950        0.02344607616267
H           -0.56574639003604       -2.37305350264984        0.01651857030345
