26
 energy: -46.459355305929 gnorm: 0.000502864602 xtb: 6.6.1 (8d0f1dd)
N           -4.24162081163626        0.41656338760115        0.51213550429154
C           -2.98796711178075        0.24075273323272        0.05398899574233
N           -2.72003765702338       -1.00624787155985       -0.34791650108912
C           -1.53275341446992       -1.54215773411960       -0.44317498573165
C           -0.27002195117939       -1.04784581389549       -0.08567760296645
C            0.82410058865636       -1.98017612118543        0.06672588360765
N            0.57108444688522       -3.33343503846720        0.07238054238761
N            2.08740897577079       -1.64979391756840        0.17262878194702
C            2.39226736410584       -0.34595288830056        0.14700094331887
C            3.60461384561144        0.32967863411080        0.16522694903773
C            3.27301679605352        1.68812488494029        0.11069767626185
N            1.96017683090487        1.91798397173014        0.05233023900753
C            1.37304900340992        0.68927869661613        0.07435741688188
C            0.03537107726837        0.35342982208606       -0.01777609095657
C           -0.94868760316969        1.42355601123145       -0.16922785862307
N           -0.44730499944219        2.63041648340555       -0.37553542287657
N           -2.26243366843011        1.34403651592510       -0.03559388460230
H           -4.56332865466899        1.34672797805804        0.70998896888015
H           -4.88562773280603       -0.35279764037526        0.47040491936831
H           -1.56651520469637       -2.55749970390291       -0.83006553084759
H           -0.28705076394706       -3.65904165117451        0.48369858476036
H            1.38903685986855       -3.87758137363627        0.30149857215824
H            4.58938797400362       -0.08913557003028        0.21057851226908
H            3.95855378893069        2.51864140772144        0.10367312109717
H           -1.08182476308478        3.41038075490348       -0.42546590401532
H            0.59379666886563        2.72297382125338       -0.28537885760914
