27
 energy: -51.768561681859 gnorm: 0.000621055715 xtb: 6.6.1 (8d0f1dd)
N            5.61897908544040        0.53074327588163        1.13512242414252
C            4.57243869938777        0.18018919082785        0.81852429074515
C            3.29742264895379       -0.25675859965946        0.43304888257246
C            3.00513077144041       -1.50254351799623       -0.13860846367891
C            1.61860991235359       -1.56015051254162       -0.34337732729418
C            0.78700682675086       -2.48375937558824       -0.96639162582240
N           -0.52242020666082       -2.37650188273483       -0.94111545406756
C           -1.10120209065214       -1.32098229101574       -0.36926600273145
N           -2.34565307341555       -1.49117851602225        0.00026158666057
C           -3.22881647766906       -0.59457346679274        0.39799116893653
N           -4.22645153517165       -1.04561290379344        1.17489948144288
N           -3.33345193945449        0.66909167027868       -0.01488292435269
C           -2.32770693212955        1.43665669861081       -0.36411999530399
N           -2.66056030300469        2.62100122013364       -0.90387418481215
C           -0.92558686328761        1.17531993969833       -0.12280829318322
C           -0.12942295538054        2.33547896905828       -0.07194772763635
N            0.43667532630917        3.33656366193190       -0.05463409524048
C           -0.32691948497454       -0.08372485076302       -0.07115369951858
C            1.05234857665605       -0.30513788010475        0.10126365063045
C            2.10984542114216        0.48770452473100        0.56609546957108
H            3.71740819400014       -2.27039696616531       -0.37635023426976
H            1.17941599614696       -3.35806680379514       -1.47097583542559
H           -4.28008305259908       -2.03076661153040        1.36483317543715
H           -5.01280024725083       -0.44846954998696        1.35891630559318
H           -1.96458516980745        3.32213277063042       -1.09258476806875
H           -3.63648656792530        2.84204993047838       -0.99980997009992
H            2.04676617020185        1.47419965392926        0.98432620807397
