31
 energy: -54.640880352537 gnorm: 0.000933122531 xtb: 6.6.1 (8d0f1dd)
N           -5.20262621408510       -0.44484268879528       -0.77423288567922
C           -4.11054809740524       -0.20469038091049       -0.49378105731518
C           -2.77618348322758        0.09742040505047       -0.17845072173289
C           -2.45984091765791        1.47447766505468       -0.06643666704785
N           -3.49974751133623        2.34621034939474       -0.17979780996892
C           -1.21309481631707        2.02980968583021        0.19775389946123
C            0.07630006278360        1.48687908991311        0.23074611297043
C            1.12939694854069        2.41806503142569        0.38883593356843
C            2.45959136597306        2.08671092258680        0.30416832207664
C            2.78648053722525        0.77073719171764        0.01933609301164
C            3.99430699618467        0.08143887994538       -0.24881934495946
N            5.24444917320835        0.57901636974365       -0.29476745150100
N            3.75665975556569       -1.22081660530766       -0.54560075904792
C            2.45293231928867       -1.41217022294295       -0.44271035310950
C            1.75516870247240       -0.22426904264594       -0.08326455722243
C            0.40228966281539        0.08019243207435        0.10815567584734
C           -0.53395534372624       -0.98073739204634        0.27225864604897
C           -0.00506848919908       -2.21833579050180        0.69058952822887
N            0.31119944570011       -3.24108120567904        1.11594238922281
C           -1.93532224580680       -1.00773923428053        0.09330635700101
N           -2.54436145661565       -2.21643687282862        0.15512909399145
H           -4.40851073100228        2.01493944924590       -0.45456132817716
H           -3.32114417579696        3.33317972770513       -0.21651930279713
H           -1.23969680743305        3.10865874505443        0.31057435034127
H            0.85839782750102        3.44918925800199        0.56435836669289
H            3.21974106175388        2.84596392790087        0.42380889464656
H            5.43698617568309        1.49348784320559        0.07212239352701
H            6.00045777616087       -0.07340300080270       -0.40831200727355
H            2.04362685756386       -2.37767048726417       -0.67134397815322
H           -3.54096467866919       -2.28812718113635        0.04563320569364
H           -2.00868684914104       -3.04745597330817        0.33778791575516
