34
 energy: -57.800196614257 gnorm: 0.000763895761 xtb: 6.6.1 (8d0f1dd)
N            3.33752804055686       -3.30506957558670        0.42479522458752
C            2.75747807961104       -2.32544556140308        0.23799388083821
C            2.14128541790653       -1.07911853724113        0.03332348313365
C            3.03697705166685       -0.07145774405495       -0.40968355524661
N            4.26687565484279       -0.48542521434474       -0.83365103792602
C            2.80991404245414        1.30011918672426       -0.44004776176210
C            1.69529600710336        2.00854146781809        0.00028914055965
N            1.83369188649220        3.37228936169928        0.08250447350387
C            0.42158824371294        1.47673883559418        0.27698864200773
C           -0.46721865453692        2.35428877485361        0.90550418039762
N           -1.14667694599724        3.10556373919051        1.46218884137078
C           -0.08587911181650        0.15095143043390        0.03957451470899
C            0.72316901741480       -1.03861805569114        0.17433391155055
C            0.07418132706009       -2.25505095488289        0.43847564113458
C           -1.29998043197499       -2.39444971108264        0.43434880564603
C           -2.07364195926996       -1.30827297899662        0.08624084108929
C           -3.48136503545386       -1.15689506719499       -0.09931682485537
N           -4.39925495191447       -2.14423237545775        0.03486778696838
C           -3.72374693045139        0.15147067960642       -0.51373501109026
C           -2.51739506895649        0.85451762130587       -0.56406958405842
N           -2.40103955224443        2.08515009107958       -1.10698847822908
C           -1.45478096748625       -0.03340848775803       -0.14790795522648
H            4.54453162396555       -1.44006830138964       -0.68072402137381
H            4.99156718499943        0.19561844525634       -0.97405443446538
H            3.65584540388730        1.90622260017897       -0.74361926351702
H            2.76607732436643        3.74703027196855        0.12334411414850
H            1.12729782257885        3.88574884089178        0.58491757564425
H            0.68295295663137       -3.12356190701099        0.63940116764595
H           -1.73994371669545       -3.35723394752817        0.65300708038544
H           -5.37348065060395       -1.89706110246040        0.05195731403021
H           -4.13063344978633       -2.98926281460305        0.50796601107824
H           -4.68433968597159        0.55808789277275       -0.77159626538190
H           -1.55287084229916        2.61137802678369       -0.99625309611874
H           -3.24467832109054        2.61055030612900       -1.25995347557828
