25
 energy: -42.728830045091 gnorm: 0.000661523112 xtb: 6.6.1 (8d0f1dd)
N           -2.68111642755468       -1.98243949065704        0.79379014876877
C           -2.12837299497028       -0.94423370029998        0.14478731328487
N           -2.98738945113340       -0.11245825685553       -0.41842714633375
C           -2.73528570855625        1.11178385524264       -0.80401623952571
N           -1.83733558780431        1.93306705800641       -0.32745747448027
C           -0.69770956608910        1.59095185464163        0.24775321044757
N           -0.11124457398263        2.52835406541734        1.00145877716545
C            0.00826064648524        0.34883158204629        0.02390473200029
C           -0.69424523461692       -0.89726954074447       -0.00689721734867
C            0.02348953169865       -2.10350341006450       -0.07901235553221
C            1.39855434472991       -2.14355841912746       -0.16167886593454
C            2.11124938913162       -0.95438787672859       -0.13831513831986
N            3.43500681551362       -0.76790172547348       -0.20161790408163
C            3.61375987865041        0.55913313164698       -0.17860754142905
C            2.43093663214278        1.28134271309777       -0.06830005526099
C            1.40543941166899        0.32136677873925       -0.03606827979899
H           -3.68369269861469       -2.05698096653620        0.81675147794331
H           -2.11200637304579       -2.71226047297828        1.18389361345742
H           -3.46062986686746        1.54920716707074       -1.48185402460452
H            0.81449258664259        2.37011702155355        1.36244210328868
H           -0.54941232480042        3.42915011682522        1.09102411457075
H           -0.52890686420016       -3.03164879208384       -0.12916748113990
H            1.92061128411268       -3.08394991883916       -0.24800200278890
H            4.60963804164370        0.96503923884572       -0.23312044926143
H            2.35221144901572        2.35346321845519       -0.08074515438669
