33
 energy: -62.899703154346 gnorm: 0.000914161402 xtb: 6.6.1 (8d0f1dd)
N           -5.42909321456747       -2.11278895833858       -1.29552356635931
C           -4.46891965587584       -1.56556433134025       -0.97787392508923
C           -3.34371705174690       -0.83174858447054       -0.59653912363913
C           -2.02206730103667       -1.26316986866506       -0.55736926287867
C           -1.21001567857154       -0.17435904141269       -0.17299384678507
C           -2.08442805273002        0.95470095198436        0.04821841350024
C           -1.51993421438402        2.12954331783802        0.57114383864416
N           -2.26300859142945        3.14552712095675        1.07260807741495
N           -0.20881846907139        2.32592482405605        0.51312767888969
C            0.61429872203236        1.37451148544154        0.09921209154600
N            1.79042467463477        1.79869717558283       -0.30823903034569
C            2.91942623763545        1.17813106345916       -0.53470931211020
N            3.81228654582548        1.86631828004582       -1.27744675679570
C            3.32303929877317       -0.08192941524904        0.00185738051856
C            4.70347868242726       -0.32594870475143        0.05072195847799
N            5.84028426902874       -0.50959338689424        0.08034106926451
C            2.45794588743062       -1.11322617749989        0.41432149545685
N            3.02990161498767       -2.22663210622163        0.92709012203896
C            1.04074429111259       -1.11453646085960        0.25908608844616
C            0.45071650620168       -2.37158499806239        0.50537413430962
N            0.05338577663149       -3.42517270816582        0.74328457203265
C            0.17078596568244       -0.03362315895450        0.02011338116700
C           -3.39861314378459        0.54593994899422       -0.21747295332087
N           -4.54178436238689        1.28194424789680       -0.11416334233372
H           -1.69137131076898       -2.24809785863283       -0.82377005148548
H           -3.19032669421056        2.94682101047589        1.40748443375775
H           -1.74586887674883        3.88141897572109        1.52643059722795
H            3.57522156018299        2.80873403217680       -1.53514065103041
H            4.76290703106645        1.54937600426224       -1.36173210249379
H            4.03249277562971       -2.30378771594360        0.95763929084023
H            2.47012270852030       -3.03451152699697        1.14119097521484
H           -4.46712761511185        2.27701300006133       -0.25581722174283
H           -5.37218692337630        0.85329815659951       -0.49601531413902
