24
 energy: -39.789621690806 gnorm: 0.000530548982 xtb: 6.6.1 (8d0f1dd)
N           -1.49809583116065        3.79959738470695        0.00334162902963
C           -0.92504118934409        2.80409307283562        0.00252730892742
C           -0.16971633317188        1.61186370099624        0.00117530609013
C            1.21535722523700        1.75767480340783        0.00048151475533
C            2.00077547252759        0.62526131885240       -0.00071441926823
C            3.38352057959995        0.37897461373745       -0.00161323597323
N            3.63947498108901       -0.92972879904968       -0.00262143421488
C            2.47129411730187       -1.57726656305978       -0.00245711523489
C            1.38019440452734       -0.68917731508122       -0.00128107010154
C           -0.01258993618552       -0.85850286855130       -0.00067438712233
C           -0.50522689485122       -2.17978997634104       -0.00142526180444
C           -1.78500505056386       -2.68671735178333       -0.00104609392288
C           -2.99607656686510       -2.00225162125681        0.00024679838962
C           -3.17850451032291       -0.62972267959806        0.00137648720087
C           -2.22965604247750        0.37700867528645        0.00149881226511
C           -0.82592111671149        0.34527663599099        0.00064719894101
H            1.65014554877672        2.74734281037185        0.00090992000823
H            4.18163067515250        1.09763448431086       -0.00153428686813
H            2.46745741360865       -2.65210447258936       -0.00316300911149
H            0.27902235570429       -2.92596631355478       -0.00247119579735
H           -1.85829367352012       -3.76741922324354       -0.00184859521488
H           -3.89170107158521       -2.60919781604150        0.00036681987504
H           -4.20703276063056       -0.29071971723787        0.00228305756177
H           -2.64434218953481        1.37940525049163        0.00244968089009
