27
 energy: -42.967889727522 gnorm: 0.000322118465 xtb: 6.6.1 (8d0f1dd)
N           -5.38634840374255        0.65768649790307        0.00039239614222
C           -4.34538008436949        0.16546289040116        0.00108889374302
C           -3.08075430154970       -0.41626952278863        0.00027752212988
C           -2.78606708145804       -1.79503833160157        0.00000968074097
C           -1.41554124208723       -1.97362974167492       -0.00024337719995
C           -0.79122449716957       -0.70802762787398       -0.00021318660253
C           -1.85243229061686        0.27756628148650        0.00002663183605
C           -1.54899772793435        1.62963620393523        0.00017757284211
C           -0.22769172616329        2.01613652624365       -0.00004548341842
C            0.84426825760386        1.10161038347818       -0.00029982383749
C            2.13333453704420        1.66981839959644       -0.00051939166298
C            3.39282506472867        1.12638959219007       -0.00088347112030
C            3.78140578941748       -0.22154787182318       -0.00100224623058
N            5.11215095059744       -0.48983372884300        0.00039751567031
C            2.90240258943577       -1.31863942113507       -0.00073836037056
C            1.53346701124568       -1.33971398476443       -0.00043737454194
C            0.55910721505758       -0.31915941201148       -0.00032748205656
H           -3.52446436018868       -2.57721030699364        0.00014028637738
H           -0.93107979304457       -2.93329544972326       -0.00036742515419
H           -2.33930086173378        2.36689940611036        0.00038638791647
H            0.00735992974558        3.07104769318092       -0.00000403840950
H            2.12344244030587        2.75462183873314       -0.00050395905795
H            4.21290729267221        1.83569027712789       -0.00104115179361
H            5.44321930525978       -1.43717708619198       -0.00553838180844
H            5.78454760424947        0.25512082104498       -0.00557608000130
H            3.39004547109196       -2.28729381956905       -0.00076178052930
H            1.10807030500250       -2.33483845303743       -0.00034298940282
