27
 energy: -47.747031410303 gnorm: 0.000493224238 xtb: 6.6.1 (8d0f1dd)
N           -4.32217825029244        1.58354220135684       -0.54374930950398
C           -3.20252678408805        1.37087064841058       -0.40188085864190
C           -1.81945513981726        1.15299550462507       -0.24094098687357
C           -0.97252863720223        2.26931795686510       -0.32861293448466
C            0.36152022412002        2.10342468432253       -0.07665063344444
C            1.42170065393553        3.04185374902787        0.00821405488088
C            2.56875523707434        2.37137163598640        0.34480360797591
C            2.29911518002215        0.98144313313398        0.45598838555542
N            3.19813140588930        0.11247602534369        0.94962805567924
C            0.91523681489604        0.77821817358376        0.15340815230191
C            0.10874673150017       -0.35171738595077        0.03283609386207
C            0.65677722799213       -1.64690668291531       -0.24613536589856
C            1.93276646024743       -1.68798934054131       -0.83426617809821
N            2.96620219910576       -1.76016196204204       -1.33642481033010
C            0.05850145044405       -2.90799428301243       -0.13523167184173
N           -1.07252699462043       -3.27322818787139        0.40762719430289
C           -2.08099149340254       -2.46337574736843        0.69829053729140
C           -2.27311877269255       -1.13748136705693        0.37721617174352
C           -1.33199191792969       -0.14420931722378        0.01503560157188
H           -1.39279393813557        3.24224218322171       -0.53708337278730
H            1.32102024426514        4.09888810711300       -0.15259958320549
H            3.53513017657632        2.80811031693327        0.51802061463989
H            4.14956677068666        0.42550316233000        1.04493628766498
H            3.04721585671070       -0.88037975896976        0.91250852110898
H            0.65648640003612       -3.74483714281720       -0.48970210720167
H           -2.90817630744253       -2.98044053019721        1.17438923704926
H           -3.28166192787891       -0.76606666498767        0.51756735888844
