32
 energy: -54.361565289319 gnorm: 0.000536356046 xtb: 6.6.1 (8d0f1dd)
N            0.10750355916160       -4.45384069680126       -0.79299409746913
C            0.31715538175415       -3.34077134447346       -0.58858414589679
C            0.62227317678410       -1.99033823251009       -0.34955040197545
C            1.96610349887307       -1.64340886554043       -0.30430613372619
C            2.30613558704090       -0.33834547414394       -0.02087755527958
C            3.55486728558825        0.30060043136568        0.17459296890562
N            4.77485166905977       -0.29857102809463        0.16583083337185
C            3.29757955268754        1.65408045808977        0.47327778715096
C            1.93845123146814        1.87985456582411        0.43435629293036
C            1.27419549837143        0.66559487586371        0.11485457255745
C           -0.07687662847983        0.36213325678757       -0.05255123747107
C           -1.01233662935447        1.42703762783178       -0.24293446332938
C           -0.48840064370611        2.63147197043988       -0.74896225883428
N           -0.18446661433929        3.62262656037394       -1.25342132046649
C           -2.40977006694112        1.46083665317694       -0.04330309950442
N           -3.02144008996142        2.67874501069321       -0.11659603686834
C           -3.23929246845789        0.38563099936654        0.28710164306193
C           -2.94595324512370       -0.97070164034840        0.28750677155701
N           -3.95962502246424       -1.82875089212475        0.60314943675936
C           -1.70928213381260       -1.57031320437993       -0.00576177530188
C           -0.43454531395807       -1.04257267981106       -0.13832565354182
H            2.71351302752987       -2.41086037484866       -0.45680334305201
H            4.85612429293678       -1.21189131056236       -0.24681279329253
H            5.59011290220326        0.28916989534480        0.13108115096971
H            4.05170911166962        2.38529044020584        0.70084631926743
H            1.46830550340955        2.81785676065330        0.65899484181936
H           -4.02415327906598        2.72129774151219       -0.15619970962351
H           -2.50651989139157        3.46618537451128       -0.47302881510315
H           -4.27090736784883        0.64597665735284        0.49522162309533
H           -3.83245959092053       -2.81389403036459        0.45258931955747
H           -4.90202243154582       -1.48610356938840        0.65974780999353
H           -1.75532653776665       -2.65263523150133       -0.06331043556128
