27
 energy: -46.946921854314 gnorm: 0.000750943201 xtb: 6.6.1 (8d0f1dd)
N           -3.57207260163892       -2.44834712634579        0.03809875464846
C           -3.10758440822530       -1.39393676975395        0.02060235304490
C           -2.57079003375610       -0.11016406042518        0.00430923916382
C           -3.33529032498640        1.07759060960771       -0.02763971166779
C           -2.50202333471967        2.18169224551072       -0.07827789880968
C           -1.18126816672460        1.71609236853784       -0.09593676213450
N           -0.04685103471360        2.39091300470631       -0.19569496670189
C            1.09322920460376        1.73841683211164       -0.14247001631316
N            2.22860844586989        2.56686875141652       -0.26657809565647
C            1.22183792007508        0.32735037525481        0.02706864508797
C            2.50802894094451       -0.25213825773299        0.29436715897593
N            3.45515482921001        0.52498748562532        0.84803001088021
C            2.91002387681217       -1.54863331245588       -0.09300732879263
C            2.08916206324472       -2.58823688701285       -0.46306360644523
N            0.82381595875878       -2.73875477988235       -0.11753645191978
C           -0.03748012540071       -1.85243262872477        0.24410575055445
C           -0.00295022411778       -0.43760673922567        0.04291253153491
C           -1.20583569841696        0.26169146973326       -0.01718869525076
H           -4.41065801846789        1.09947207517659       -0.01171758253763
H           -2.80442996541468        3.21040608513953       -0.10799554796154
H            1.91185690880693        3.51715302355849       -0.42556123285973
H            2.85941264820905        2.27752631646754       -1.00481038068227
H            4.38359975800586        0.16550718717894        0.98486780074024
H            3.26041724286246        1.50416466687391        1.00750359957447
H            3.97953309651297       -1.72201632687267       -0.11345109132921
H            2.52239077641138       -3.45892597749154       -0.94106654719603
H           -0.95745528774815       -2.25880248157626        0.65136664585490
