28
 energy: -51.484098717163 gnorm: 0.000572342790 xtb: 6.6.1 (8d0f1dd)
N            5.63104325821705        0.70083692664329        0.98570025330779
C            4.58877621578474        0.30739064127500        0.70664626560806
C            3.32167312516491       -0.18603753754335        0.36819513926328
C            3.05232443888777       -1.50067361322789       -0.05658509756485
C            1.67553575461699       -1.60145911575389       -0.25568047936006
C            0.84999778664201       -2.63515404438607       -0.69225071982306
N           -0.45296125169414       -2.53423565425001       -0.69296122271099
C           -1.06088495775333       -1.38305469669395       -0.32747349771757
C           -2.41115628342098       -1.54040336704190       -0.08564415779506
C           -3.36458860901934       -0.58121547855393        0.32491308126677
N           -4.52029276550640       -1.03539662816242        0.85232364152735
N           -3.31399033145905        0.72599403372793        0.16280368299362
C           -2.28925010445444        1.46972728574821       -0.21612063121714
N           -2.64135266373918        2.72059577070492       -0.57548790371078
C           -0.89767117157966        1.14118074584541       -0.18289269726237
C           -0.06762562704308        2.27358425691885       -0.30198436685673
N            0.50547560101370        3.26115010993979       -0.44491736347987
C           -0.30533773107256       -0.13469336905783       -0.12673623375043
C            1.07946463183226       -0.31271259757897        0.02901594508947
C            2.12730115879415        0.54498799045683        0.41219480774798
H            3.77898731656835       -2.27975745984950       -0.19260170966367
H            1.25208170083785       -3.58706096035993       -1.01769989682626
H           -2.75799427661936       -2.56253458700580       -0.16663406262181
H           -4.68447185694316       -2.01820404804613        0.96919074267536
H           -5.23269895589010       -0.37232010741854        1.10047932561800
H           -3.61156630860807        2.97281672053705       -0.50890710747744
H           -1.95022436987268        3.41947935201129       -0.78727190640841
H            2.05070827461574        1.56695409022182        0.72848828334886
