32
 energy: -58.369733779839 gnorm: 0.000622558899 xtb: 6.6.1 (8d0f1dd)
N            5.29319877895422        0.43534988202456       -0.81326810075891
C            4.20702738212905        0.18085269121608       -0.52033671405622
C            2.88421427653638       -0.13609444993208       -0.17824979718327
C            2.56854201706276       -1.51747976488155       -0.10214472050083
N            3.58666565124715       -2.38563494788216       -0.33328886272759
C            1.34119097772262       -2.07509277485723        0.23208306091050
C            0.05710988358259       -1.53421970728685        0.34050404153504
N           -0.87067140717258       -2.47912798963005        0.58786451620842
C           -2.15296690153726       -2.20237900667420        0.52248245905661
C           -2.59925838599372       -0.95953612439043        0.12689217531569
C           -3.87013432892993       -0.40529249519364       -0.19262687719886
N           -5.05462058569695       -1.03428556353152       -0.17667102922130
N           -3.76094981081406        0.87308756325166       -0.57488584456408
C           -2.46524196122205        1.21930487995386       -0.48626912099480
N           -2.11073525145393        2.42839852531549       -0.95430817939012
C           -1.64746260270113        0.11329617555601       -0.03903288389758
C           -0.29254422523037       -0.13219965619539        0.18624082294805
C            0.65757545689591        0.92546369792508        0.37629150579717
C            0.11989235142048        2.12406347375810        0.84603176543628
N           -0.30171372557401        3.12192737327702        1.25108488278697
C            2.05276417890646        0.95232718718283        0.17312031356101
N            2.66590218136263        2.15899747981970        0.27989346381493
H            4.50179497395694       -2.05036033794121       -0.57817279182765
H            3.41986402723756       -3.37409983878160       -0.29425696496292
H            1.33888061460647       -3.15320274157594        0.33789583175285
H           -2.82485096886017       -3.01972991797547        0.75749363887259
H           -5.88179407455987       -0.50504979546187       -0.38665144257272
H           -5.13331105317511       -1.96524003883031        0.18799907048224
H           -2.89906646192792        3.01057237398391       -1.19577342671109
H           -1.30429427697906        2.90392044653860       -0.57779437930391
H            3.66486814719222        2.22578177021515        0.18904344122540
H            2.14583863451477        2.97191175020336        0.56036204376752
