25
 energy: -48.307546403482 gnorm: 0.000771722455 xtb: 6.6.1 (8d0f1dd)
N           -2.55000488022744       -3.39546645607987        0.91432326298751
C           -1.66077748279396       -2.71094522004313        0.67843844267016
C           -0.55297581206085       -1.88258886374993        0.39567973401054
C            0.71910039043802       -2.42859930557630        0.29798968010104
C            1.77061306300715       -1.60526296767612       -0.06851333313240
C            3.14043043787551       -1.81902750108670       -0.30586956214552
N            3.76057129615130       -0.68415381423902       -0.64594584525583
C            2.86367955371765        0.29706286858432       -0.60662818949563
C            1.58009479603089       -0.18252966383547       -0.24025086337610
C            0.33381076689179        0.41011692418897       -0.03127741120136
C            0.17290196509366        1.78552673375667        0.25486558847080
C            1.32360738088565        2.59111561979718        0.42048034305546
N            2.20122190350428        3.31449299005800        0.57275765547391
C           -1.02162066968996        2.45992329324294        0.59170899369475
N           -2.26017275585883        2.14777899396010        0.35257357743567
C           -2.64201545011810        0.98883964751096       -0.21334325041944
N           -3.81514582281620        1.01089150867058       -0.85677428951240
N           -2.06537413823552       -0.18650474911776       -0.06936470690358
C           -0.80754079872264       -0.50918017181625        0.12223541017105
H            0.86518196155206       -3.48695970390965        0.45982285607776
H            3.68312377726584       -2.74381583565963       -0.23890315475023
H            3.14403356522632        1.29629334519392       -0.88071867940372
H           -0.90156236903943        3.42775671556225        1.07132872422602
H           -4.36250002064540        1.85386016702175       -0.84265893102312
H           -4.22232479613335        0.14391888624155       -1.16293448115659
