24
 energy: -39.006020464372 gnorm: 0.000615405456 xtb: 6.6.1 (8d0f1dd)
N           -0.37511749618661        2.50367146543944        0.00140296210875
C           -1.02278067044755        1.34563679187942        0.00126690711396
C           -2.43700812216925        1.39591245747168        0.00120638962166
C           -3.35387460153409        0.37770111612398        0.00108657934167
N           -3.19954772904007       -0.94290188920408        0.00098579014502
C           -2.06518013411602       -1.58459850754730        0.00097010446016
C           -0.70579127438681       -1.19335160830932        0.00104812572273
C            0.21609490148795       -2.27188098760757        0.00097949661330
C            1.57519349035505       -2.11072034185204        0.00104238162719
C            2.09574834297503       -0.81695577656131        0.00118516061367
C            3.37687368844498       -0.26195914176199        0.00128731656101
C            3.18856661045353        1.11682538862593        0.00140859067844
N            1.89722317943368        1.46530740402786        0.00139803609362
C            1.18581851809307        0.30796632068655        0.00125784701423
C           -0.20526575233862        0.15622875152336        0.00119061559391
H            0.67841927278599        2.44710947879574        0.00144017404547
H           -0.88908606889741        3.36909742846050        0.00145473556879
H           -2.84749733062446        2.40006399899415        0.00127083732650
H           -4.40167578396162        0.66597424673431        0.00106860032630
H           -2.21854871182465       -2.66262010344709        0.00087167068415
H           -0.19311870021911       -3.27212341428768        0.00087155109351
H            2.23318187419614       -2.96803882898755        0.00098415154078
H            4.31444506109958       -0.78257520147126        0.00127447264963
H            3.94680355082135        1.88059304697425        0.00151373225553
