30
 energy: -56.520766744500 gnorm: 0.000534884194 xtb: 6.6.1 (8d0f1dd)
N            5.08608872254972       -1.80510876705693       -0.69232615858904
C            4.24506065143115       -1.05188923018184       -0.50038838869205
C            3.22774122397661       -0.08659214713309       -0.27085015616937
C            3.66005659538732        1.25108648835400       -0.27930800319465
C            2.92080710418915        2.36007926980160        0.02638012431919
C            1.54231683554368        2.49157355194826        0.27945328427554
N            1.16291263011409        3.70619675083456        0.72712840692253
C            0.50838818185211        1.51878890219624        0.05062841178241
C           -0.79228251705126        2.01285637568354       -0.11837485252396
C           -1.91698344591030        1.19631363903948       -0.18489257898189
C           -3.17734042508338        1.80093264172153       -0.40266950370588
N           -4.16717729157935        2.34998701997204       -0.57990767877258
C           -1.76664837759495       -0.17539643476883       -0.01052151715415
C           -2.70196076183922       -1.23604230276785        0.04181104387446
C           -4.09443851501225       -1.12308343919562       -0.03087738812967
N           -5.23904893755003       -1.04751246421864       -0.08299986337387
C           -1.98285167258251       -2.42131924797626        0.19461396235478
C           -0.60713376587838       -2.13260630601185        0.22782070465233
C            0.35706428315745       -3.13034311444080        0.39737275400340
N            1.11606131670230       -3.98156357570875        0.54852556415287
C           -0.43724322460690       -0.72983645070863        0.10809786002207
C            0.71599757894656        0.08620926552697        0.05230117776882
C            1.95502516934253       -0.57448184357701       -0.04649389353027
H            4.71253807226591        1.40388314109527       -0.48206463398285
H            3.47336264429239        3.29067433392623        0.08850585273138
H            1.85487875861732        4.41711988625861        0.89073652578892
H            0.22445604900795        3.88297026407062        1.03873690954793
H           -0.95243986743674        3.07115753699177       -0.26339349417021
H           -2.40777776700857       -3.40465753413524        0.27968923919191
H            1.88998575755604       -1.65553168974057       -0.02635245191911
