27
 energy: -46.950388571864 gnorm: 0.000699205141 xtb: 6.6.1 (8d0f1dd)
N            1.26205074850360        4.22304829986260       -0.44183825321761
C            0.72836047268135        3.21546948625412       -0.30864064472624
C            0.02166897255181        2.00244022790236       -0.17596968642951
C           -1.36551589340179        2.01257546888998       -0.28461448491965
C           -2.05262978371193        0.83096423548094       -0.08925976511821
C           -3.41514572280510        0.47321708944020       -0.07483971696426
N           -3.58447582130706       -0.82459622485377        0.15436491521732
C           -2.35688621165654       -1.37598584694183        0.27706243371570
N           -2.23242990545452       -2.71028794311866        0.52259567311939
C           -1.33375636485204       -0.40683443621404        0.11737830892235
C            0.06211965818405       -0.46789564902880        0.07729093666214
C            0.71646161312654       -1.68182119304173       -0.16849590989327
C            2.07860990320567       -1.98319272158020       -0.23298508132827
N            2.41447568272934       -3.24732727314350       -0.61557891219631
C            3.12833873412406       -1.15025829452709        0.20248724061853
C            3.00150062292092        0.15603099109621        0.63213365067742
N            2.01769057586196        1.00406731189615        0.46275042441821
C            0.76107746688114        0.81887194479568        0.10881072328925
H           -1.88307463104671        2.94113681572683       -0.47905227251666
H           -4.26320668641154        1.11801899179010       -0.21411756455650
H           -3.10133543517685       -3.15548228661279        0.77842536432971
H           -1.42055692644998       -3.00807984263063        1.04124314040097
H            0.05860655909578       -2.49509009770646       -0.45271698426273
H            3.37756182153448       -3.46479600829620       -0.80124637451754
H            1.71833925228182       -3.84002900984703       -1.03276003467298
H            4.11545570848554       -1.59219136062978        0.23501029374933
H            3.87072357560577        0.61290346023842        1.09696088149720
