29
 energy: -50.405604404599 gnorm: 0.000975160254 xtb: 6.6.1 (8d0f1dd)
N           -1.01142499499991        3.70468812334184       -0.14312416942332
C           -0.60764161772671        2.62903412502738       -0.08490923573563
C           -0.02875631272528        1.34898527941892       -0.03190969093435
C            1.38340808090671        1.25528004616113       -0.04616845472877
N            2.14728027291084        2.37532266894466       -0.09489256606355
C            1.92704533863423       -0.02250484234979        0.03229889689984
C            3.24287293462040       -0.53286714308031        0.08554557985021
N            4.42393759161618        0.16717426786091        0.11231480181507
N            3.24375474627491       -1.87941096750781        0.07159075761883
C            1.97236421879274       -2.27325281686795        0.02911431510625
C            1.07580176064306       -1.18768095759965        0.01674121242906
C           -0.32808562864266       -1.11125852718332       -0.00791001244245
C           -1.08032835061108       -2.28878974680384       -0.07714872716568
C           -2.45626340026108       -2.47078980344959       -0.11400616493095
C           -3.45801163206140       -1.53002250144523       -0.05160536131359
C           -3.28316690059491       -0.12950319445773        0.06964033497334
N           -4.39643960482357        0.63031896310870        0.20699767244336
N           -2.17799774936781        0.58456397663362        0.06841726886715
C           -0.89558053853302        0.23541958636150        0.01316636255288
H            3.10138034386212        2.28477329786848       -0.39995434006862
H            1.68188914177949        3.24995737611616       -0.28246876229033
H            5.21884292320572       -0.43900262882112        0.26005264838201
H            4.43585167734885        0.99465500687645        0.69045360113609
H            1.74904220384887       -3.32449025144552        0.02204126470262
H           -0.49251963434817       -3.19581646723399       -0.12259003093145
H           -2.78368988576622       -3.50078555356206       -0.19456681658678
H           -4.48110940054225       -1.88052644874294       -0.08419927524656
H           -5.31630773817266        0.23972132672390        0.12094318124642
H           -4.27426760196642        1.62828026930642        0.22341329023876
