31
 energy: -55.443217086647 gnorm: 0.000949829203 xtb: 6.6.1 (8d0f1dd)
N            5.52161750812109        1.13401012379158       -1.21440014463481
C            4.53457778176996        0.68899923327974       -0.83621005906721
C            3.31754922252143        0.14418613462961       -0.35832383422685
C            3.27962439107257       -1.24714089170467       -0.21226754058803
C            2.26058034427697       -1.99409268826932        0.32276235909271
C            0.95220984372140       -1.60762278113310        0.64802460323021
N            0.23557573305833       -2.48020520257034        1.37463207399160
C            0.28964673333315       -0.37669111106749        0.28635038653589
C            0.98378759458922        0.89822004391167        0.27714573077309
C            2.32995927922549        1.07068565361237       -0.02746210941763
C            0.20722956786247        2.09950324065865        0.46019744903168
N            0.84888414566365        3.30258419489977        0.66975054076836
C           -1.16429818193052        2.07739895596623        0.31492013478535
C           -1.80800620138045        0.88073831562997        0.01739002975286
C           -3.15825981261825        0.59539319907230       -0.26037396893901
C           -4.18424383571581        1.53701889579899       -0.34756510010120
N           -5.01969081315735        2.32493455927099       -0.40464952268035
C           -3.27772769744373       -0.79316328735630       -0.45348928422878
C           -2.03815416607888       -1.39583431688862       -0.25917715534256
C           -1.78081460563181       -2.74963860219119       -0.46057482007590
N           -1.55399325721529       -3.86963385399130       -0.60859618740851
C           -1.08042702446814       -0.36525790823365        0.04748582264504
H            4.18516390126391       -1.77569034131060       -0.48277465304484
H            2.47625403470199       -3.04054331444009        0.50025842634640
H           -0.73308623519925       -2.29881075777190        1.57956167830285
H            0.56685742911962       -3.42030548680247        1.51420828597943
H            2.64506695015244        2.10154754579653       -0.14023239632649
H            0.23735796022603        4.08676092639999        0.83074989578035
H            1.67907314007009        3.30599087506053        1.23804039094404
H           -1.73752290498875        2.98911366222215        0.40470620181591
H           -4.18299095592214       -1.30839345987007       -0.71951369919375
