33
 energy: -58.082636509455 gnorm: 0.000792652463 xtb: 6.6.1 (8d0f1dd)
N            5.22681195286767       -0.88707441383441       -0.42273392511360
C            4.17949470726206       -0.42557258322741       -0.28681577599726
C            2.91158082198321        0.15911388839303       -0.10575972202534
C            2.94705730687923        1.51303576822595        0.28109717331338
N            4.15092619623808        2.05881769854766        0.57132081608405
C            1.83636090246164        2.37697120120389        0.31928209885891
C            0.52347762331925        2.06888727962384        0.11427325945100
C           -0.14820222858340        0.83848519250161       -0.00677982433545
C            0.43309951243084       -0.49434739673911       -0.02382450207858
C            1.80702152303323       -0.71559323770124       -0.33110468776028
N            2.14010741840981       -1.89310098708606       -0.89985202594290
C           -0.43875903919006       -1.60694531174939        0.13987438360408
N            0.07108848754799       -2.90641828898373        0.31895240171734
C           -1.83192118536393       -1.46908152527200        0.12317418223479
C           -2.65362251634575       -2.59243134304050        0.31208271879959
N           -3.31581506631237       -3.51914118963210        0.47677632322433
C           -2.41848146254445       -0.20696834048630       -0.05716905570339
C           -3.70544161263873        0.28755470595690       -0.13654538534535
C           -3.54944935365898        1.69071207762756       -0.20427548388115
N           -4.54803897297464        2.60989991156270       -0.24567152175088
N           -2.26197367792537        2.08384390790220       -0.16364639605614
C           -1.54064397270620        0.95219432415417       -0.08628800141627
H            4.22112171631421        3.04286518882983        0.75769650364957
H            4.99642074920307        1.52141152112393        0.48359428806260
H            2.07240598276456        3.41712069470642        0.50646823269724
H           -0.17109821831529        2.90038476449802        0.10753220502582
H            3.09819113310598       -2.09483129456408       -1.12895869803041
H            1.42744030498747       -2.58822291684708       -1.06032482548110
H           -0.65791527226603       -3.56931100949566        0.55396862085264
H            0.84336961930596       -2.96555118066150        0.96904749968780
H           -4.62958484244207       -0.25600705474995       -0.13763070177676
H           -5.45899950134650        2.30754744364707       -0.54400039132812
H           -4.27777661250049        3.55254301186548       -0.46907367894016
