32
 energy: -58.388049421781 gnorm: 0.000455474641 xtb: 6.6.1 (8d0f1dd)
N            4.78986213399280        1.63190594616879        0.37863412614357
C            3.81411022651648        1.04065900941208        0.22579430936639
C            2.63979604439287        0.28826706481599        0.05131826382300
C            2.75266443866697       -1.10016766577734        0.30565920047612
N            3.82881251395529       -1.55920608409160        0.97673469196126
N            1.94599916685390       -2.02757054960747       -0.17434676985165
C            0.69887342488536       -1.93498514526399       -0.55693043976924
N            0.26929774478195       -2.93553060323104       -1.34281846143737
C           -0.25389554502377       -0.90911335111181       -0.17755785791200
C           -1.59177620661460       -1.28946762970009        0.09189982604372
N           -1.93661944137051       -2.64496613717099        0.18042480735572
C           -2.60066684730722       -0.33313713516858        0.24116752452972
C           -3.91159985018660       -0.73504211768888        0.55059942410955
N           -4.97161904252303       -1.08895888621592        0.82123519250914
C           -2.29498901735653        1.02431718241392        0.07257862662587
C           -3.02323095003068        2.21392102118781        0.08725444260394
C           -2.09263971134250        3.21878855883994       -0.14273892373390
N           -0.84475273726710        2.75059818409082       -0.30138348190286
C           -0.92275719741175        1.40695761789285       -0.17326131946797
C            0.11548766358902        0.46712600625943       -0.22926925158022
C            1.46982493308805        0.98680231501589       -0.32753842643907
N            1.57947061420873        2.26546021824356       -0.66868241747651
H            3.97314680545423       -2.55204744295137        1.02988288401156
H            4.57823120957954       -0.93461293725286        1.22048254147169
H           -0.70647184112517       -3.01448193561358       -1.57546165000726
H            0.91629050828630       -3.66236506433728       -1.59519753923455
H           -1.26642258240559       -3.22516971886207        0.66511448953177
H           -2.87574502708021       -2.78149078263353        0.53246747439993
H           -4.07749187179198        2.32932735486063        0.24409883872848
H           -2.27549531806419        4.27680804317044       -0.21055174393839
H            2.48273912432944        2.71152495263820       -0.61666677226024
H            0.67665188252043        2.81685972146828       -0.64761714547768
