26
 energy: -47.231678882449 gnorm: 0.000493536411 xtb: 6.6.1 (8d0f1dd)
N           -5.49909168175737       -0.79891479636094        0.21530838087340
C           -4.40270750092887       -0.46428538669146        0.16577639793987
C           -3.05606554649627       -0.04304758959173        0.09682820034636
C           -2.78441206342115        1.29373727356421        0.43996489865057
N           -1.72175396048183        1.97937092329100        0.14335104443169
C           -0.53275676618308        1.59490521984426       -0.27432370180631
N            0.20080164913952        2.53358621523878       -0.88531589563895
C            0.07538733572571        0.30792101188538       -0.03076103149377
C           -0.70328527311640       -0.90555545669044       -0.17441739139545
C            0.01786110595054       -2.13134374924791       -0.25756151173921
N            1.31058548642757       -2.27046441446437       -0.17429016129190
C            2.04209793124863       -1.17950206106494        0.00322470807767
N            3.36044156768636       -1.12042592526483        0.05362759015851
C            3.66979726913507        0.18281622929517        0.27853534814373
N            4.97268013698950        0.55373785631576        0.35895301135102
C            2.54641019852281        1.01785755572964        0.30662349729061
C            1.44611497450463        0.17070526415337        0.13055655491009
C           -2.09328761014496       -0.99853362625496       -0.23439029515641
H           -3.56723716295095        1.86556775172787        0.92765386670756
H           -0.20664220492053        3.43401962092275       -1.07130920894849
H            1.13530860826339        2.31933666743270       -1.19040182407227
H           -0.54432613380984       -3.05191284594941       -0.34910457270751
H            5.62884670748295       -0.20011350955671        0.47666042774809
H            5.19471879398978        1.43115690260407        0.79696535367941
H            2.55572014621070        2.07073253493251        0.51863369785484
H           -2.48229999066580       -1.98679612529956       -0.45653153851337
