31
 energy: -53.852931310152 gnorm: 0.000662691258 xtb: 6.6.1 (8d0f1dd)
N            4.79084051163128        1.80120034612791        0.17465638586617
C            3.87950360205131        1.09626067496527        0.11934179828541
C            2.79803228218412        0.22950973772388        0.06818970928849
C            2.87285539921538       -1.19040281500498        0.09884546973088
N            4.04471923069246       -1.90283311998310        0.09156227509421
C            1.58666618351476       -1.71915700823567        0.04278735483684
C            0.66662590115586       -0.65388872554770       -0.00827943060840
C            1.43471430568319        0.57598589670702        0.02925672058734
C            0.79671380111970        1.80248206867157        0.05203079736145
C           -0.58677730302897        1.87108482747521        0.03313686626493
N           -1.20949487424546        3.14389476594598        0.04010328481269
C           -1.37369482296836        0.69785487991460       -0.00807538414291
C           -2.80453572343607        0.78681192514420       -0.17023054475959
N           -3.31810256537624        1.78242520244609       -0.90957219370617
N           -3.69066434213582        0.01425852496926        0.44108992413170
C           -3.49583801554855       -1.20824923215156        0.85641957537770
N           -2.64650666593320       -2.08203851641622        0.38196489120058
C           -1.50774057255918       -1.79294840231403       -0.22523268294861
N           -0.99233694541880       -2.76647584604544       -0.98816508885157
C           -0.73021380962787       -0.59035310457630       -0.03157026663196
H            4.87205179686090       -1.39211366899348        0.35711703702557
H            4.00142147276039       -2.85129262952868        0.42745555625306
H            1.36565808384938       -2.76934335935696        0.11337986885354
H            1.37976213878472        2.71289265754809        0.09394739988565
H           -1.92706436578173        3.22842511328419        0.75118758803753
H           -0.52001003867648        3.87581302924606        0.16342242549486
H           -4.31778852259536        1.89061028110804       -0.93622994515119
H           -2.70976236901502        2.52758539797140       -1.21529922230654
H           -4.23022640970207       -1.59266906826603        1.55621849378446
H           -0.09450942699597       -2.64154275966984       -1.42315955125709
H           -1.49566422725839       -3.63167292275872       -1.08153863970914
