26
 energy: -46.450893213716 gnorm: 0.000253233217 xtb: 6.6.1 (8d0f1dd)
N            3.53540537003677        1.51928377449927        0.51262882703390
C            2.70437499762561        0.53289065760284        0.11095967954948
N            3.33355302487274       -0.60373299920149       -0.19823252919368
C            2.72175091440436       -1.74643216291815       -0.43978596547613
N            1.50147244036582       -2.16634519780500       -0.25981006717247
C            0.41164231271452       -1.40432255074547       -0.03327660910639
C           -0.77715200122165       -2.09656539044383        0.14786899197747
C           -2.04646543277264       -1.49900949415780        0.15681217719792
N           -3.15769784668369       -2.24583527386873        0.34959121081039
C           -2.10189782801371       -0.11282418562476       -0.03818285795976
C           -3.11662315911475        0.85763766250194       -0.08741376055384
N           -2.63921844154211        2.09700775608461       -0.23078362424774
C           -1.29687100138744        1.98771409009475       -0.27278024141600
N           -0.45554454626553        3.01591599646903       -0.41402804903504
C           -0.88144057358243        0.62635570039435       -0.16497215936026
C            0.38599753033155        0.06829747610212       -0.10359380457016
N            1.43383037860584        0.89702079133657       -0.01117126315515
H            4.51645029975468        1.32053886713944        0.58136671621764
H            3.17338162487031        2.42559263288417        0.74336316744196
H            3.39960859396851       -2.52274437410906       -0.79409803869147
H           -0.70309988802057       -3.17125291538686        0.23101293279275
H           -3.08434595811077       -3.24764486454978        0.37089488263438
H           -4.06276039332618       -1.83309225717177        0.21440351352717
H           -4.17983971472920        0.70904131651214       -0.01188483164296
H           -0.79939808215844        3.95925062014760       -0.40076196988633
H            0.52490659217867        2.78643294831483       -0.32635170821589
