29
 energy: -51.998828656878 gnorm: 0.000810977711 xtb: 6.6.1 (8d0f1dd)
N           -5.27362113052424        1.59957267323782        0.26878283390528
C           -4.38642481627590        0.88032784878330        0.15487922621507
C           -3.28878385899813       -0.00607656459975        0.02440038692929
C           -3.62358507325353       -1.28124803835233       -0.42815360848175
C           -2.81850299472163       -2.40426707057528       -0.43890831401212
C           -1.47866377265630       -2.48830900340830       -0.11117090442465
C           -0.51152942275115       -1.48970959210493        0.07628093891591
C            0.81680804583714       -1.96176140401784        0.21149533353465
C            1.91743598176673       -1.13159696302620        0.19771291791843
C            3.20898700726090       -1.69043199503794        0.34300970326513
N            4.23417935302751       -2.18448738463107        0.47583842496256
C            1.72538558092837        0.24362644668345       -0.00248238221900
C            2.61658368055899        1.30860854265841       -0.16883564433739
C            4.01180167603051        1.25770734210235       -0.16752492437133
N            5.16094295429273        1.25449786055361       -0.16871172102776
C            1.84257402485407        2.48191151633630       -0.37230580519429
C            0.50695934161624        2.17241113567729       -0.28440088377104
C            0.37470077679714        0.77384229157085       -0.05081998143659
C           -0.73808906738473       -0.06144511458585        0.08745783025091
C           -2.02512029473699        0.52739382589199        0.36612954700684
N           -2.01973224036197        1.72621950129117        0.97233294491552
H           -4.65945310964850       -1.41445396130046       -0.71443197379925
H           -3.30300086323685       -3.33339572986254       -0.70714727695142
H           -1.08006175222279       -3.49579298655135       -0.09261224291805
H            0.97420684754896       -3.02696981845787        0.29577732338606
H            2.25727300495574        3.45401378233548       -0.56694030827349
H           -0.29039142566500        2.86916129610666       -0.47047485650017
H           -1.15041484884770        2.12693861300069        1.28518875119861
H           -2.88639792278883        2.18513842558338        1.20259448701321
