32
 energy: -58.365909152921 gnorm: 0.000551776672 xtb: 6.6.1 (8d0f1dd)
N           -5.13044603595512       -0.01851281788375        0.37449315133497
C           -4.00094042026337       -0.18714712642479        0.22896001985020
C           -2.61772743929917       -0.38685741771690        0.06791471463231
C           -2.14731880050187       -1.69273785844804        0.35735506093878
N           -2.99785329096449       -2.54594930239632        0.96705688558810
C           -0.93582595247329       -2.20321927446931       -0.11484457089962
C            0.16191211069818       -1.50835903534235       -0.58696605968199
N            1.05921789447905       -2.15980873501848       -1.34137073424340
C            0.47469068653240       -0.12695320952872       -0.24688769716819
C           -0.48485443987799        0.92489912140649       -0.22307036503770
C            0.00316965775661        2.25455351187847       -0.00033431225498
N           -0.87049059336251        3.35526629078371        0.07969388319514
N            1.26520467690722        2.57222889047523        0.13845206495568
C            2.16810605890323        1.60430931938427        0.15640046489449
N            3.48143518734721        1.76097298664667        0.34755961353255
C            3.99200510459239        0.53298973885809        0.39496397145135
C            3.04086411670948       -0.48161119272366        0.19356883689234
C            3.28393556371410       -1.84515353279419        0.27868235265688
N            3.46753155938075       -2.98311636194731        0.33595629859765
C            1.80320172664596        0.20290337202933        0.01466186938072
C           -1.89263089180469        0.72315203884772       -0.41929474124745
N           -2.59795120529208        1.70140522688796       -1.00947690723106
H           -3.92761719384921       -2.25370989525066        1.21474140193011
H           -2.74043294308000       -3.50735143781839        1.09935127418314
H           -0.86438723486277       -3.28360945245097       -0.14909634984604
H            1.93584649039137       -1.71743908115956       -1.56610174112774
H            1.03125649991243       -3.16394656136376       -1.40804539344416
H           -0.31300064444976        4.18025642490824        0.27429469459325
H           -1.59908531101117        3.25022677536546        0.77625131611900
H            5.04165682516957        0.38554328479178        0.57806092714717
H           -2.13563141101294        2.57539127533626       -1.22087879979493
H           -3.60243631957978        1.64267756233759       -1.05365388479639
