27
 energy: -47.767062919545 gnorm: 0.000489453113 xtb: 6.6.1 (8d0f1dd)
N            2.46122943133814       -3.38493911510451       -0.01027336300967
C            1.67108341558266       -2.55437606153879       -0.00816625334580
C            0.67808104667887       -1.54916779416893       -0.00488662599088
C           -0.66027003361946       -1.90178281259812       -0.00416753949617
C           -1.71291894201771       -0.96285069087957       -0.00058128328070
C           -3.00524567428251       -1.48407164001181        0.00159736459452
C           -4.25228962583568       -0.86473063958280        0.00479146123143
C           -4.55358755029950        0.48171879217040        0.00430186470951
C           -3.66796221315390        1.56148565688942        0.00169115775979
C           -2.29295920826088        1.53473631451125        0.00107618972850
C           -1.38236999514363        0.46401507537736        0.00136426772746
C           -0.02698335241868        0.80253167050979        0.00200664354023
N            0.49252053062887        2.05254459732824        0.00871224273670
C            1.81676000657419        1.91067136184656        0.00635505238884
N            2.65383004143745        2.96388217250392       -0.02897603699512
C            2.22306379441363        0.53172928814389        0.00139517717236
C            3.54243847556059        0.09536253377406        0.01257585330265
N            4.65597960617782       -0.19431991020349        0.03015971124017
C            1.02564474573987       -0.18909780661290       -0.00138529469392
H           -0.91038503443547       -2.95338986543209       -0.00625170100598
H           -3.04677517623751       -2.56802733960988        0.00075096900560
H           -5.09932619000215       -1.53935295296540        0.00699186490174
H           -5.60654644059526        0.73471484888485        0.00578773046640
H           -4.12365731252262        2.54331436829268        0.00042407953980
H           -1.78836924563992        2.49431686988772       -0.00011823243549
H            2.26918491118358        3.88334906712881        0.09347991291707
H            3.63811860224913        2.81758972945938        0.10980740839088
