25
 energy: -48.299245979570 gnorm: 0.000856913712 xtb: 6.6.1 (8d0f1dd)
N           -2.08245259923089       -4.22669467449419        0.03354686728279
C           -1.75076311431624       -3.13036309730007        0.01995162222895
C           -1.35653246747436       -1.76618875959459        0.00022065057006
C           -2.39231460033405       -0.83162924864012        0.15035444672135
C           -2.33422018858039        0.54074837729838        0.03449476262538
C           -3.59289025098995        1.19014905488319        0.12251294330119
N           -4.60985171477583        1.71649254957184        0.19012630605868
C           -1.20996727362093        1.40651264278605       -0.18324877395316
N           -1.51414066593544        2.66056409287503       -0.54274026693717
C            0.15869893511175        1.06124501496334        0.00031390286091
C            1.08405754585406        2.11118816868432        0.21640478291302
N            2.39192715852776        2.01891621258715        0.28246691081629
C            2.91432865672549        0.81822687578634        0.11760086891673
N            4.19716695593211        0.43612484585271        0.08983850027988
C            4.12613604495654       -0.88511163752744       -0.04580390703216
N            2.90086826004050       -1.43454125654809       -0.11565217873897
C            2.08324676171405       -0.38094792466866       -0.03028152083349
C            0.68462280833743       -0.28977115652020       -0.06211582454730
C           -0.00524542946806       -1.50558220047464       -0.14856463477306
H           -3.38008033049639       -1.24671434258628        0.32141475414289
H           -2.47723993574741        2.95305070667038       -0.60738675016656
H           -0.79278732793173        3.33564925698579       -0.73159370640772
H            0.72103052692637        3.11259132861903        0.41460557732553
H            5.00974545152235       -1.49385115013070       -0.09949240822365
H            0.65161087565466       -2.36163581447751       -0.26066923443069
