30
 energy: -54.929759359314 gnorm: 0.000817465085 xtb: 6.6.1 (8d0f1dd)
N            4.64249004309679        2.27324644250530        0.39793867183020
C            3.83088647727230        1.46993077218822        0.26503219898489
C            2.86290781385784        0.45530263318418        0.10855770483600
C            1.54231336202584        0.87452405574087        0.08732263054175
C            0.33455771756339        0.18447918918476        0.00946333885823
C            0.14684484780001       -1.26871754579328       -0.00743503016192
C            1.19832985967770       -2.16699658725936       -0.18289888482672
C            2.57090784343981       -2.00925820700441       -0.23775899950702
C            3.36207812822278       -0.86989089688444       -0.06608627228545
N            4.70128073657614       -1.02667346365958       -0.08630475739988
C           -1.17545814512955       -1.79826303721279        0.08323735941173
N           -1.38724984121966       -3.15774044072069        0.16127444079203
C           -2.31148396354273       -0.96985479385389        0.03244904861751
C           -3.59698635860133       -1.53517618003828        0.11600810907183
N           -4.62759989740047       -2.03582240288185        0.20258415928378
C           -2.15310782927831        0.41454132508078       -0.06358279625320
N           -3.03854789684093        1.40523198054306       -0.11833911635022
C           -2.26161028819580        2.51518822124971       -0.13046402284189
N           -2.79838647266601        3.74256379032248       -0.15547162668016
N           -0.92995087132907        2.31691992418634       -0.08330130980822
C           -0.81312142762306        0.98085826323212       -0.04543388392301
H            1.39855298982143        1.94901766513124        0.14716910098616
H            0.89180951813346       -3.19440643202224       -0.33648066682164
H            3.13358379404972       -2.91889234609095       -0.41416519334672
H            5.10749381762316       -1.93354771043932       -0.23420473483525
H            5.30846548498809       -0.23088391895290        0.02006666842549
H           -0.72081602416770       -3.72061250646196        0.66198518009576
H           -2.34910685612660       -3.43002667084246        0.30190159103303
H           -3.78587108968159        3.82548257734220       -0.31448161364818
H           -2.19154851754719        4.53110982352577       -0.28559933837865
