27
 energy: -46.963313619848 gnorm: 0.000809286385 xtb: 6.6.1 (8d0f1dd)
N            3.89871814307247        2.47008705098375        0.01427416604580
C            3.12081863819768        1.62321060396320        0.02043605018093
C            2.23479215898665        0.52485564694927        0.02519717964415
C            2.89707652501545       -0.70655184650019        0.12722474642307
C            2.38494168978393       -1.97574003773135        0.11309118979667
C            1.01764966352238       -2.33728232398285       -0.02709446788513
N            0.75900546842519       -3.67206978737296       -0.10191180315762
N           -0.05788218714334       -1.58763133194891       -0.04626228696910
C           -0.18524777768328       -0.24379181689198       -0.00796282967770
C            0.83778617269135        0.79221602498345       -0.03672598693556
C            0.43583699743585        2.13951219323264       -0.09693746422901
C           -0.87925746999898        2.56182775967908       -0.08696643524910
C           -1.87276560942016        1.60030578530076       -0.01101022575759
C           -3.28406687839340        1.59271606781081        0.03518587424587
N           -3.78577072953165        0.36003431037653        0.09805657285368
C           -2.73630388628940       -0.48822735251995        0.08827012422129
N           -2.83625707160131       -1.81630692901338        0.12960139792027
C           -1.49358293387126        0.21897444200579        0.02243791002587
H            3.97581778451820       -0.62995918406573        0.21236213899614
H            3.08440186046232       -2.79719451591882        0.18875550294101
H            1.50916828084716       -4.32284783178242       -0.24999677433251
H           -0.17357363276715       -3.96412446313445       -0.33707564361903
H            1.21559700887164        2.88668832801481       -0.14183526518816
H           -1.11408342412755        3.61498350868093       -0.12915175407610
H           -3.94270890297059        2.44213247084000        0.02528798030741
H           -3.73032165977772       -2.26131027321120        0.23542405171132
H           -1.94926080125445       -2.30496717304686        0.15183636146310
