33
 energy: -58.100169516539 gnorm: 0.000530438173 xtb: 6.6.1 (8d0f1dd)
N           -5.74831458104798        1.01800193260772        0.45965505506295
C           -4.68191703628389        0.61015746591185        0.31182769583653
C           -3.37129533025010        0.16089294930063        0.15622561087045
C           -2.95332055616029       -1.16054576352512       -0.04923541349155
C           -1.55853214689512       -1.16734133011648       -0.09275796289029
C           -0.64496663442929       -2.22016800964801       -0.22978311691432
N           -1.05142526433067       -3.49281712529694       -0.42335190108121
C            0.72959579749321       -1.91091771693726       -0.14338858075231
C            1.62323420991364       -2.99104741078557       -0.18967034220960
N            2.30871831117718       -3.91629189712869       -0.22835294937357
C            1.22705660446252       -0.58767407274167       -0.00883826831713
C            2.59452025552315       -0.43867188877444        0.19525666932477
C            3.38713861839578        0.71542669457667        0.31724186499059
N            4.66189926306047        0.54264952750324        0.74992039879725
N            3.10418592512361        1.97429184134819        0.01342882551151
C            1.91482707118491        2.44962332374660       -0.32476388942419
N            1.95094984658483        3.76361819888116       -0.68074488657029
C            0.64819587064303        1.84578826744174       -0.26562602803246
C            0.27992522754942        0.52220535473357       -0.04557079296650
C           -1.08669594261155        0.18954091485694        0.04750690255842
C           -2.23041242492349        0.99970476181910        0.23041944346496
N           -2.29361550606073        2.35646568665357        0.45029069565982
H           -3.61381254741989       -2.00395562334894       -0.13913621609430
H           -2.02936057432984       -3.71385041654907       -0.38842200594265
H           -0.37858940797304       -4.24026714437605       -0.42737404289634
H            3.14536437014306       -1.36588987942307        0.30848574143111
H            5.05040161548312       -0.37767848671579        0.84599157317877
H            5.27705231827801        1.33593925711069        0.71988425154865
H            2.85781294381748        4.17482169427153       -0.81541128054184
H            1.15817813636614        4.18936585634693       -1.12582849816450
H           -0.16774263402649        2.51739303658611       -0.49445055047246
H           -1.54355286663638        2.75046439855904        0.99942382928621
H           -3.21141853901884        2.67993589881021        0.72486434581318
