31
 energy: -55.450753860800 gnorm: 0.000560593560 xtb: 6.6.1 (8d0f1dd)
N           -4.61911131773075       -1.04830572493033       -0.58736458776257
C           -3.65716635929353       -0.44787683662001       -0.40083232448390
C           -2.49972217866196        0.33041587384174       -0.17325946638827
C           -2.74175273607824        1.61213062106392        0.37704652199209
N           -3.97510174417648        1.87044280633688        0.86033507075792
C           -1.82631296509638        2.67828912007507        0.33101284357183
C           -0.50201383461465        2.66113997358627       -0.01253349330779
C            0.39944970148171        1.58804340660512       -0.16367226507817
C            1.76629021838707        1.94696935503937       -0.22668398881204
C            2.78264612297186        1.01827303308249       -0.15710671775867
C            4.13117712293201        1.43000895455034       -0.22797797567096
N            5.22521034695519        1.76889469458435       -0.29069658682669
C            2.46143604981671       -0.33665537696364        0.03536512723289
C            3.24817804610555       -1.46319953799017        0.26027431347593
C            2.39976284760313       -2.55149380991114        0.43338634185242
C            1.06692982155849       -2.14231439804234        0.27654366194275
C           -0.03618866156525       -2.96353706858186        0.48977770910288
N           -0.95566517793328       -3.63679963136943        0.66245006568145
C            1.06690888509879       -0.73753147989399        0.01186179048425
C            0.04722021983569        0.19759777548211       -0.18603913148060
C           -1.27973967148919       -0.26015165987422       -0.54270143182417
N           -1.33759684214997       -1.35993085365660       -1.30807619984337
H           -4.69013805570625        1.16280169313710        0.85103519076004
H           -4.20977763873176        2.79212127615574        1.18253215326696
H           -2.24459343560904        3.64437252844115        0.58561767806572
H           -0.03143360833142        3.63670450237433       -0.04730239927294
H            2.01950212285689        2.99468297560909       -0.29922355960659
H            4.32007237201898       -1.47736062474866        0.32040775512352
H            2.70112805823704       -3.55774711331501        0.66274667225145
H           -0.49332129853527       -1.86589040987570       -1.52100169368309
H           -2.21540874325671       -1.83086916139211       -1.46330624456180
