23
 energy: -43.281025146248 gnorm: 0.000344008781 xtb: 6.6.1 (8d0f1dd)
N           -4.04273625260882       -0.35015841582188       -0.77006196846878
C           -2.93561057764407       -0.04182318519447       -0.07559645090299
N           -2.90279524957600        1.20403826721394        0.42021593156952
C           -1.78538865201800        1.79817369500462        0.76577634509722
N           -0.53505210011498        1.50617471668537        0.50793876801613
C           -0.04948546715196        0.28838693705452        0.24293307673452
C           -0.80770456303571       -0.98292970214957        0.38556013660419
N           -0.18806224359494       -2.13556422070602        0.62814198690065
C            1.11467793819906       -2.25315865868456        0.47185543992120
C            1.88601692327137       -1.21067710919607       -0.02032964024561
C            3.25070999533043       -0.97972996492895       -0.29634753573807
N            3.52017590621089        0.30601226029777       -0.50239562288996
C            2.35675069609390        0.98271885140537       -0.36926758255300
N            2.25280582697642        2.30889959940828       -0.47617800943530
C            1.27567666632334        0.09389262873464       -0.09523803119469
N           -2.09759757853701       -1.05121857564614        0.12060879680899
H           -4.19099312845624       -1.30579473506884       -1.04237560004218
H           -4.78114715815158        0.32729824067240       -0.83786079053506
H           -1.92595887129703        2.76782663210624        1.23963200387450
H            1.53931371033054       -3.21086961390934        0.74465047269846
H            4.03972820504292       -1.70850778515903       -0.33779429782701
H            1.37158492814988        2.72195713493920       -0.21087190227467
H            3.08830782365761        2.86607976364266       -0.53054602161776
