28
 energy: -51.486064664165 gnorm: 0.000538468860 xtb: 6.6.1 (8d0f1dd)
N           -5.46240466516612       -1.03842720171491        0.80748485589243
C           -4.39800030315510       -0.65856151981480        0.60297343381925
C           -3.10969218577336       -0.16718349120266        0.35519602107005
C           -2.80021506448542        1.20328026330544        0.15034899298784
C           -1.43292907444569        1.29685282292325       -0.02862859879715
C           -0.56010984882026        2.38090931466639       -0.27974323308242
N           -1.01511320862292        3.62796896908647       -0.48324642274957
N            0.75305429775096        2.21527786546001       -0.29399325816524
C            1.31153373234529        1.00631764057605       -0.14882072356802
C            2.68964823361448        1.06764823121704        0.02403059041336
C            3.64001828837828        0.05131754280457        0.21701958548668
N            4.87747433604121        0.41121855553266        0.62018164457282
N            3.52346988304267       -1.25380663003698       -0.02299342441971
C            2.42523132722763       -1.89052204530163       -0.33157280675821
C            1.07767800450576       -1.50753638144716       -0.31570140396561
C            0.23134591709857       -2.60072595261453       -0.61799510685768
N           -0.35679775944639       -3.54082444726462       -0.91521289694843
C            0.50710363665796       -0.22525768822003       -0.11592366572395
C           -0.86793869268542       -0.03429149427175        0.03984482544079
C           -1.94511149795509       -0.92108486284885        0.28014716812390
H           -3.52078938452663        2.00092515718611        0.15041250388158
H           -1.99664301580211        3.83027791588828       -0.44417118479792
H           -0.35015732474238        4.36517540389757       -0.63765970860432
H            3.06756533534870        2.08173006741531        0.06917866156025
H            5.12040705392758        1.37162106357563        0.77814729637512
H            5.57582508646484       -0.30632597109285        0.70393203110631
H            2.60788979058988       -2.93149605971580       -0.58864546805937
H           -1.89024718856805       -1.98220996028848        0.42085181446651
