29
 energy: -55.230352935891 gnorm: 0.000810287519 xtb: 6.6.1 (8d0f1dd)
N           -2.57632482809423        4.01002344060825       -0.72612616185169
C           -1.97205180187205        3.05797435771202       -0.51344935169772
C           -1.17618100585733        1.92595969780955       -0.24812902634095
C            0.20823910155915        2.08234068228529       -0.08648064432079
C            1.06295479486728        1.01206165705056        0.12561730779953
C            2.45958956879065        1.27286209628291        0.43415893217458
N            2.76300638042754        2.41829167307410        1.06112862782928
N            3.48613901922725        0.53424688145774        0.09072753441746
C            3.45264627143409       -0.72993053387635       -0.31300267859145
N            4.48623788396177       -1.15353550203966       -1.05418528648715
N            2.59850859220785       -1.67483758279876        0.08437676983632
C            1.34605685522667       -1.47963782507901        0.38684428870968
C            0.54524957182611       -0.33226931636786        0.19893310887834
C           -0.85438561822985       -0.48193626796812        0.13662319596626
C           -1.72205178154845       -1.57941655091218        0.19669302520145
C           -1.47215015855051       -2.93072668763980        0.38262147859619
N           -1.32687615391208       -4.06533252152011        0.52811218478517
C           -3.03675169219046       -1.02812976216989        0.00123312977828
N           -4.18235706780513       -1.72843752157298        0.02495847132262
N           -3.01900588726168        0.29223984554006       -0.17946911446848
C           -1.72922587178646        0.65772138875285       -0.11003536780016
H            0.61094127153519        3.08196006808285       -0.17608273985636
H            2.04895175195719        3.06124332414117        1.35144216878893
H            3.72889726619677        2.61552617445908        1.25960569697059
H            5.22978723129142       -0.51932092347215       -1.28434107145588
H            4.56649413531008       -2.13483017401060       -1.25439000549470
H            0.84048657514033       -2.37761593447000        0.72841663532477
H           -4.15912534062238       -2.73192654615060        0.05912181114998
H           -5.03711027293484       -1.25116337461464       -0.19824108886520
