32
 energy: -59.954028076727 gnorm: 0.000886956913 xtb: 6.6.1 (8d0f1dd)
N           -6.06464738854794       -0.48690401231362        1.11537419948269
C           -4.95935323586031       -0.58790994667217        0.82206289260874
C           -3.61013923239313       -0.71874676300914        0.46392048568371
C           -2.98655941476431       -1.90231181287509        0.05410606191537
C           -1.62729035076482       -1.61405918218960       -0.15106727612885
C           -0.57060023298229       -2.40276187718906       -0.56526223768997
C            0.71258265981342       -1.86573972951895       -0.54806482116638
C            1.76007272163179       -2.68322142010998       -1.02413584978420
N            2.53599092705772       -3.36171427953145       -1.53043078628217
C            0.97338562972090       -0.52289500599749       -0.15150957988361
C            2.27406561267368       -0.20701470612167        0.27313937308626
C            3.09172264881991       -1.29532022424909        0.66304466539580
N            3.79274728216975       -2.08605331865864        1.11545403807070
C            2.88773413231789        1.06298456807167        0.47351845862965
N            4.11976674323009        1.07993457333057        1.03119303917318
C            2.36891107891095        2.28302599819881        0.04931774863135
C            1.09566839442598        2.61047049001332       -0.40782746993711
N            0.92603294403935        3.86768654978268       -0.87871204130000
C           -0.06045286329795        1.77683449069632       -0.32667121184576
C           -1.25398476343616        2.46684277823831       -0.64078149376473
N           -2.14324031076221        3.11871402958782       -0.96701669074481
C           -0.15920967575726        0.39671528352585       -0.08803969872891
C           -1.42376914089087       -0.20419800957971        0.10010809319408
C           -2.66369401278970        0.32416277397776        0.48475515615230
H           -3.45925613864312       -2.85879483287935       -0.06688576272497
H           -0.71482989790234       -3.43240688184163       -0.85850111951613
H            4.58092835869711        0.22204923053901        1.28258372477185
H            4.62371785103498        1.94364186115044        1.11933407687139
H            3.06554883248544        3.11282070382225        0.08925816817466
H            0.01962834693467        4.19232579472725       -1.16988982299636
H            1.69745565868319        4.50976788407611       -0.89609474284512
H           -2.87728501805308        1.32532042010039        0.80654527709773
