29
 energy: -56.780300410696 gnorm: 0.000700575422 xtb: 6.6.1 (8d0f1dd)
N           -5.56590734510052        0.53254444621982       -0.29407906950605
C           -4.42742259916411        0.44577281705983       -0.19760706407525
C           -3.01915858114932        0.33421775865608       -0.08411231693346
C           -2.52323836143296       -0.91069181919297        0.32205673049288
C           -1.21291866296021       -1.34305982982051        0.33428859220962
C           -1.06444090706681       -2.65125067969020        0.87042632359269
N           -1.01368778276192       -3.66029859364323        1.41234874732046
C            0.00177839431726       -0.66411210489007       -0.00853632818554
C            1.12361521782109       -1.45049457542521       -0.29190802262801
C            0.99154071174387       -2.80393867529235       -0.66839943662511
N            1.00599290418617       -3.87328056588832       -1.08749798750009
C            2.45720161190322       -0.93658874082510       -0.29636052978992
N            3.49082572803974       -1.72354600861025       -0.60770366676946
C            2.60621090372002        0.39756014485422        0.08965131879448
C            3.71100656697058        1.21665134748989        0.35222621669713
N            3.32804596010565        2.45274309962588        0.69631081655777
C            2.00483525750444        2.50245033094169        0.62929744409945
C            1.45225710310267        1.25056416482309        0.25443538374619
C            0.14790267706343        0.78489037040182        0.05087009828657
C           -0.91081074430619        1.69320144786119       -0.20567698516589
C           -0.56297942820807        3.03964854444500       -0.49881914658590
N           -0.39088852146516        4.13372094251114       -0.79419499558693
C           -2.27937889923226        1.48215465950986       -0.34916238963044
H           -3.26501875925796       -1.64179684249904        0.62427000737348
H            3.34275836342904       -2.68963796438122       -0.85401024906878
H            4.42796466820514       -1.36241331449451       -0.57080210656057
H            4.75468993599339        0.96171180321725        0.32776764308315
H            1.48855552415346        3.40414433977337        0.89554216992892
H           -2.85271032736331        2.35210499693914       -0.65179521606951
