29
 energy: -50.406035145016 gnorm: 0.000472671971 xtb: 6.6.1 (8d0f1dd)
N           -1.85677520479427       -3.56728761873663       -0.24917832989142
C           -1.18285487834738       -2.63673126858544       -0.19185309432223
C           -0.29011443126289       -1.55350102873725       -0.13106790602528
C            1.09690314087745       -1.82873714801707       -0.13914724778692
N            1.54411047177645       -3.09287609885172       -0.26887317921384
C            1.95953535250878       -0.74114118020978        0.02295636485201
C            3.34940821022984       -0.61076094455457        0.12576855682582
N            3.71977482933081        0.66212696128397        0.28259906264563
C            2.60075546005428        1.40680200910495        0.26433009162901
N            2.68498934754916        2.76314628187131        0.40293869531055
C            1.44029900400988        0.60341687710317        0.08640232235347
C            0.07990479320063        0.89702709894057       -0.06098433484078
C           -0.34448915770041        2.19343267227039       -0.38330083665272
C           -1.62867312981098        2.69048823159905       -0.56153360053983
C           -2.83772884955627        2.08428703731623       -0.30328458098593
C           -3.00559467403738        0.76539564580161        0.18079294301966
N           -4.22294665342884        0.41452664595837        0.66813322089708
N           -2.13612299659485       -0.22048039184238        0.17776503035828
C           -0.82705528789782       -0.25161079861743       -0.01886450606573
H            2.52641095016719       -3.28673775126719       -0.20672619946842
H            0.88883596139008       -3.85383331450487       -0.32554762810042
H            4.09596775225065       -1.38473962084138        0.10542866224933
H            3.60261822527463        3.07469707451201        0.68505574808099
H            1.91471070528137        3.22584255149690        0.86018686195843
H            0.45469641519771        2.88486918531505       -0.61441751814696
H           -1.68184093691315        3.71462527282051       -0.91272131849862
H           -3.73866392219875        2.66622031904923       -0.44412380745469
H           -4.36894959333775       -0.55946556507895        0.87199136392039
H           -5.02105429162130        1.00745577539874        0.52974293449401
