26
 energy: -43.249486612099 gnorm: 0.000314128544 xtb: 6.6.1 (8d0f1dd)
N            5.43080697557849        0.47948722525676        0.00045007133122
C            4.35355947452930        0.07430444247395        0.00067527840676
C            3.04715486809662       -0.40390613275807        0.00041350854981
C            2.62473133795234       -1.75298031630189        0.00019919178505
N            1.30719008222806       -1.88806711177805        0.00016484852351
C            0.79796952061251       -0.63199048838200        0.00031769465952
C            1.85573997657408        0.34898803080839        0.00043675338747
C            1.53826267338321        1.70391976377054        0.00057879969880
C            0.21471512814283        2.07202869861813        0.00060109211460
C           -0.85347946845853        1.14493068172604        0.00053411710164
C           -2.15069832320538        1.68346303235706        0.00063441081565
C           -3.39439453723595        1.09849848213340        0.00070387174967
C           -3.74877195723640       -0.25891763798228        0.00063769579358
N           -5.06950787061131       -0.55621853173177        0.00048122629708
C           -2.84853814827684       -1.34560561961485        0.00041944685167
C           -1.48391994484560       -1.32998082082491        0.00030079122365
C           -0.55375320855050       -0.26871522863141        0.00038663279002
H            3.26390897896266       -2.61835698496462        0.00015852737379
H            2.32002448537130        2.45031695489297        0.00066325210673
H           -0.03394157894682        3.12402414588223        0.00069207497146
H           -2.17243571616515        2.76803839871853        0.00071717705229
H           -4.23457435786754        1.78401403648099        0.00082723691996
H           -5.76036205880192        0.17241892435158        0.00158207054340
H           -5.37886415650002       -1.51143554802368        0.00139836742905
H           -3.31739551572762       -2.32294712805859        0.00034565503196
H           -0.99013995190182       -2.29522223881842        0.00015656579167
