29
 energy: -45.593596639319 gnorm: 0.000410933056 xtb: 6.6.1 (8d0f1dd)
N           -4.50555012059338        1.44835731416428       -0.46283477193531
C           -3.35904711989833        0.69173840310031       -0.31296845979373
C           -3.33694061957417       -0.71096730949716       -0.14546921182251
C           -2.01887483328440       -1.09868689440877        0.00568044144196
C           -1.42431824352682       -2.35198396574760        0.17319770463540
C           -0.06297568450181       -2.44457860397077        0.22480655404829
C            0.79000203979089       -1.31177937655339        0.14444192785276
C            2.15674904188861       -1.59358157128883        0.05593767682595
N            3.20354990777681       -0.86644058289819       -0.25981128472300
C            3.26858897237567        0.45616544940825       -0.29100529171108
N            4.47629956804836        0.93155157859156       -0.70724198671259
C            2.33159206886187        1.37648421622753        0.20331702060557
C            0.98169123108087        1.18414459449634        0.44226657493578
N            0.30189128488742        2.23803375704483        0.96365005200451
C            0.19759707901247        0.00962970821934        0.13850105830078
C           -1.18447594602465        0.10341867531459       -0.01383498991081
C           -2.06544992317326        1.19088870392605       -0.21611943789607
H           -5.30201234485150        0.94683938136210       -0.82483612466610
H           -4.37108136537416        2.35355025245690       -0.88697473924545
H           -4.19717870875216       -1.35509759201714       -0.16146826369521
H           -2.04080905349049       -3.23834297174015        0.23041801609060
H            0.40576900534181       -3.41573549983046        0.30072779076891
H            2.42010736433604       -2.64504169529589        0.15271869930596
H            4.58527800824216        1.90196655131658       -0.93901158442207
H            5.10246914654302        0.26348123628199       -1.12142661720576
H            2.70827422296293        2.37760436001926        0.38437297717909
H           -0.63215821978489        2.07392963082015        1.30347584970031
H            0.82161858331538        3.01145115512352        1.34082336424560
H           -1.80262196493390        2.21856759617413       -0.39289478760083
