26
 energy: -43.231434337978 gnorm: 0.000824328255 xtb: 6.6.1 (8d0f1dd)
N           -2.68268280886022        3.29944753475238       -0.00298113281151
C           -2.23847587264384        2.24189764084698       -0.00441013454181
C           -1.78662658379740        0.89617810595736       -0.00760215962671
C           -2.81087352037810       -0.05463278321135       -0.02127394293714
C           -2.73388822540922       -1.42319852465259       -0.01906844115284
C           -1.57956907888039       -2.23197353038897       -0.00737119586043
N           -1.78550926746398       -3.57894944268187       -0.03564067480994
C           -0.25543783797881       -1.79815271437757       -0.00541219791265
C            0.32802009936774       -0.52945344693205       -0.00605569060882
C           -0.38147460918632        0.75104944323212        0.00287027094158
N            0.25034222281598        1.92699314889007        0.01994962455123
C            1.56974791646503        1.99831126500857        0.02380762903393
C            2.37005148473611        0.87470735582928        0.00722287052665
C            3.76364934454677        0.66896936660153        0.00217849392847
C            3.98754196481056       -0.69923281819069       -0.01689427804654
C            2.76564541177573       -1.37681753314876       -0.02273227326003
C            1.73230534029023       -0.42741419270713       -0.00825922860696
H           -3.81098491762875        0.36395656504752       -0.03052645034280
H           -3.67502046682695       -1.95921232161818       -0.02785217720074
H           -1.01190655236833       -4.20785824456341        0.08533530942549
H           -2.71208973983157       -3.94779777967776        0.08174087187643
H            0.46774290332709       -2.60611532244424       -0.00406150666208
H            1.97910730265999        3.00109888496905        0.03969390830873
H            4.51008874129719        1.44112585441163        0.01099224237255
H            4.95267818943643       -1.17390789868491       -0.02621573648677
H            2.66219851602508       -2.44705168376691       -0.03849705119728
