30
 energy: -54.134518005310 gnorm: 0.000520286153 xtb: 6.6.1 (8d0f1dd)
N           -2.84943081546507       -3.09924137987454       -0.12457352763562
C           -2.35912540589158       -2.05884280599569       -0.08312043496673
C           -1.84627585441311       -0.74675597024050       -0.04291486366405
C           -2.80454666723470        0.29542036639025       -0.19560658921659
N           -4.05169737039879       -0.06197810102585       -0.58004874038214
N           -2.67488023353701        1.58506948263870        0.04246482385869
C           -1.55685336421333        2.25640325685590        0.30209038704282
N           -1.79304003493108        3.56585904756377        0.60203100559714
C           -0.22161004024017        1.85599035493164        0.19831225182071
C            0.31976104063751        0.58123565590048        0.03531027072425
C           -0.44557453301842       -0.66609359971516        0.09962922469522
N            0.13493540742944       -1.85391163803805        0.25256755811418
C            1.45823832977869       -2.00096191270141        0.26954042812867
N            1.91072960879261       -3.24481363696392        0.51515108816426
C            2.30237126262788       -0.90627666544544        0.03581378435260
C            3.67883569906927       -0.70271562209170       -0.10044994414627
N            3.96922547327313        0.58050928471262       -0.33616535465800
C            2.80817309553128        1.25658176185868       -0.34419577006732
N            2.80346034696731        2.60659600822262       -0.56656588606495
C            1.70232090404574        0.39543769070543       -0.09997377769655
H           -4.30434605071929       -1.03193748952119       -0.65665467923869
H           -4.76250174655998        0.64752193492130       -0.58551885619239
H           -2.74824456976853        3.82315065682342        0.77980724899665
H           -1.06465156944090        4.12545454144421        1.00834203978428
H            0.49970935347583        2.65106793339690        0.33467316624832
H            2.88520377267288       -3.46185636375393        0.41602743118831
H            1.23202757532002       -3.98365778422220        0.58201712670703
H            4.46893823427294       -1.43083357080054       -0.05192026971669
H            3.70077665078955        2.95126802336906       -0.87634179552606
H            2.01273586994770        2.97603909115442       -1.07251515165118
