30
 energy: -50.926038822772 gnorm: 0.000992118050 xtb: 6.6.1 (8d0f1dd)
N            1.12543897295982       -4.52555594066985        0.38381795290761
C            0.78047095856802       -3.43566488825125        0.27815134913742
C            0.33967057631000       -2.10443012615380        0.14328151881985
C           -1.02400551620600       -1.83439632197192        0.10073777712557
C           -1.55187930443627       -0.54061601038908       -0.00257884879927
C           -2.96257456363618       -0.42808302781628       -0.20834149186377
N           -3.62772821529322       -1.53905571704173       -0.61739845017055
C           -3.79165646116506        0.68496205897252        0.02374335853496
C           -3.47032088677557        1.98294562588911        0.32850113921313
C           -2.20252732000455        2.56168294149954        0.36186163235321
C           -0.99036756992064        1.94638972613554        0.16946360245978
C           -0.63304463351494        0.59041760282317        0.04029853400533
C            0.74464686422704        0.30381205611386       -0.01353125560160
C            1.88545808440680        1.13779498659817       -0.06526494416941
C            1.99542155181270        2.52174678938522       -0.10522944843297
N            2.18223888049734        3.66051789419369       -0.12904841896489
C            3.04605497429253        0.30419381285016       -0.07089635869153
N            4.31686788053923        0.76929563656282       -0.18874383334218
C            2.64658203991756       -1.02975920686110       -0.00485142529379
C            1.25378775469112       -1.05451126888629        0.02970688919471
H           -1.68564942008754       -2.68141483510994        0.20955227999192
H           -3.13478346917809       -2.33433423468412       -0.97908179070115
H           -4.61296203142398       -1.47757618812117       -0.80581598330788
H           -4.85143369952637        0.46917818768359       -0.05816973056757
H           -4.30442094042826        2.65035528424180        0.50334291017198
H           -2.17196589809336        3.62872565499408        0.53688376957638
H           -0.14158084036183        2.61748464041236        0.18093844551854
H            4.47795102746031        1.75258866048090       -0.04901314126141
H            5.07771132072706        0.14364366009308        0.00884979613444
H            3.29506912494280       -1.88518613167323        0.01769464332304
