32
 energy: -59.176809988940 gnorm: 0.000984301851 xtb: 6.6.1 (8d0f1dd)
N           -5.47119998874151       -1.58852035387161       -0.61498099435354
C           -4.45911223572732       -1.08942792083394       -0.40159862436508
C           -3.22108345956249       -0.45865962414052       -0.14320841934575
C           -2.16042863248336       -1.30350625492643        0.10539522407504
C           -0.78170267488518       -1.06266077456352        0.22100024858228
C            0.02422620085576       -2.22113266983885        0.22125171251796
C            1.40308661153612       -2.18287649541558        0.13711930308074
C            2.15535637187010       -3.37671600677721        0.13347491823929
N            2.74055865006793       -4.36277050859653        0.14085809290511
C            2.02933422467501       -0.93477352448241        0.00214281115951
N            3.32054556586703       -0.68425491508181       -0.20477101431739
C            3.43022615943602        0.65028056059963       -0.31244339736105
N            4.62569519223399        1.23834536662782       -0.51687275077136
C            2.18704599494774        1.31504435728773       -0.13033112512257
C            2.01976126612677        2.68034634371297       -0.29445417993964
N            1.91318457032754        3.82167754209871       -0.43219044178821
C            1.23315204850936        0.28003894884188        0.08420617596651
C           -0.15086178923524        0.23301278695651        0.28278205017524
C           -0.86584791719230        1.43749991129374        0.62827796956701
N           -0.18003386820346        2.36295550263476        1.31863034028594
C           -2.18743237160811        1.76045259317689        0.31716574122325
C           -3.23283275052192        0.97194975825431       -0.13865934514302
N           -4.38502692219288        1.57856528658963       -0.49515302964725
H           -2.42947434925403       -2.35489224256873        0.10857672663739
H           -0.46189391215403       -3.18568022793506        0.24854185047831
H            5.39206616975524        0.64029234177093       -0.77248194746442
H            4.65824670364677        2.20757763124894       -0.78154105079868
H            0.79681050067507        2.22607680536384        1.51809021536113
H           -0.54852863256099        3.29042936669391        1.44253939853791
H           -2.43822481363646        2.80540413264646        0.46497321559655
H           -4.46311452580425        2.57945225097123       -0.47534913672101
H           -5.18493630126509        1.03379899966024       -0.76967547695002
