28
 energy: -51.483385579679 gnorm: 0.000668472294 xtb: 6.6.1 (8d0f1dd)
N           -1.24275044195167       -4.45216193037460        0.45877270713709
C           -0.90213130755533       -3.36405070270447        0.33087029306712
C           -0.42326936575030       -2.04872661881987        0.16619817361271
C            0.95761934946854       -1.83231767795477        0.07303186861443
C            1.53118022189987       -0.56955124759550       -0.03270425740688
C            2.95805100219988       -0.48716739910148       -0.25199367912304
N            3.56931226346485       -1.56486365932542       -0.77963221506564
C            3.78810021394174        0.56074083168324        0.16112204560413
C            3.38272135194436        1.80731613089548        0.60897828640026
N            2.25817824550957        2.41861430402174        0.32972550477974
C            1.13493965692265        1.92411428196867       -0.10480933198022
C            0.66861768902353        0.59607149699422       -0.03623363815688
C           -0.72046380142285        0.37469128839815       -0.03652214391327
C           -1.84028419013978        1.22093289916093       -0.06549414720232
C           -1.94128119716924        2.60246782300415       -0.13382705763937
N           -2.09371018179747        3.74394128972975       -0.18912889562943
C           -2.97586388987470        0.34224166253256        0.00613037245160
N           -4.26074763628327        0.72910106653739       -0.03402299057471
N           -2.62552433642691       -0.94199880011556        0.08813204491129
C           -1.28424096401841       -0.96122686227162        0.07340775576878
H            1.58677071335634       -2.70803890018649        0.15071804426205
H            4.56691308055206       -1.56582007622513       -0.90356521359153
H            3.04408388177873       -2.35682007638792       -1.10457734226172
H            4.85177574250635        0.35601199123974        0.15932331877040
H            4.10408179487967        2.42766347862735        1.13033739358694
H            0.42623819355762        2.67713013335036       -0.43553753273516
H           -4.97251267753843        0.03225828323717        0.09126113624083
H           -4.49623328347828        1.70468002587943        0.00085262987084
