32
 energy: -59.172027740251 gnorm: 0.000651747951 xtb: 6.6.1 (8d0f1dd)
N            5.50039365848608        0.13805533453138        0.04484676176271
C            4.35225104812507        0.06272952175033        0.03865810286320
C            2.94806709470445        0.02028958615716        0.00962711437038
C            2.33202737936959       -1.19183169613746        0.29423280030005
C            0.98756003921841       -1.53533505841848        0.24218006783948
C            0.75458791679428       -2.86201932584313        0.67837991540887
N            0.66843715586573       -3.91339126600980        1.13247834559521
C           -0.14715930625160       -0.71672108343336       -0.04924051649487
C           -1.39360322468916       -1.32567586618559       -0.23535724830644
C           -1.50664610948435       -2.69241115181002       -0.55588338966877
N           -1.74470342750245       -3.75442331206445       -0.92866403166481
C           -2.63711236157599       -0.61570326829201       -0.18484832455098
N           -3.79781021889907       -1.27824861820307       -0.35797040714876
C           -2.57348791363593        0.74829979401192        0.06335362947846
C           -3.56488381543397        1.75131199267167        0.19127054780065
C           -2.95010269911777        2.98043158676344        0.31769830394114
C           -1.55391030186799        2.79960383590271        0.26026392900187
N           -0.58517241277085        3.72115212969687        0.33592571803231
C           -1.29797754604999        1.40080069213214        0.11348344984680
C           -0.07908166114033        0.74319912028310       -0.02527029288256
N            0.99722204030280        1.52233773136082       -0.19188740802587
C            2.27196730296278        1.24093142763690       -0.31244911147917
N            3.04101658318734        2.28239031218390       -0.70913905830457
H            3.00334019670531       -1.99879989854106        0.56933987170352
H           -4.67045999353200       -0.78951369558214       -0.28243470699027
H           -3.79609471204172       -2.27080288954274       -0.52094178514350
H           -4.62776544077057        1.58870632637575        0.18536118147876
H           -3.44505963513295        3.92595549475934        0.43942010994271
H           -0.79550477946290        4.70186561900488        0.38552967943907
H            0.35487047714115        3.36911014968873        0.20445893881819
H            4.03275106072952        2.16907043890839       -0.82717657649091
H            2.60097334986685        3.14335039844438       -0.97963402387152
