28
 energy: -51.495727632851 gnorm: 0.000963910172 xtb: 6.6.1 (8d0f1dd)
N           -4.92628856752104       -1.29569297272966       -0.63823933979132
C           -3.96779764707260       -0.69515190076355       -0.44062254872058
C           -2.79151257646782        0.05257715462622       -0.19914393560819
C           -2.93515134006374        1.42597106696879       -0.32784088861240
C           -2.02692351831194        2.41917954183929       -0.03408377013160
C           -0.67009638662184        2.31005146194500        0.26508002637106
N           -0.06981579426639        3.44075632932572        0.69267547211670
C            0.16590875339740        1.14448195030631        0.08526561553727
C            1.53278150832108        1.40323142995834       -0.13341063350078
C            2.51354187956392        0.42473974468099       -0.20414938308745
C            3.85086484882140        0.78726411528311       -0.47172125199421
N            4.92599415415209        1.12555369905241       -0.68218307375008
C            2.12852552991363       -0.89832022342015        0.01672721538306
N            2.82159856136657       -2.04661692873408        0.06893674101531
C            1.89049477116098       -2.96810430347148        0.28438409155878
N            0.63004038107911       -2.53005648169393        0.37694196194008
C            0.72785383576997       -1.18838543927064        0.21200949214785
C           -0.28314693241333       -0.21091754413356        0.17594364572849
C           -1.64334926341991       -0.69817551389364        0.18373801956239
N           -1.81530326769818       -1.98052776843329        0.47439835912797
H           -3.92579702188748        1.75813480057890       -0.61493297908865
H           -2.41979306131874        3.42857453090434       -0.02605582823267
H            0.87985132164956        3.43916869852602        1.01891168963427
H           -0.61292623503067        4.27795363744430        0.81086760172549
H            1.85046993873307        2.41803601578474       -0.32589674267042
H            2.13135905562414       -4.00994844615659        0.38652609680121
H           -2.73112801285989       -2.39399260573484        0.38659321984309
H           -0.94529706249894       -2.56406925338923        0.55462489569543
