28
 energy: -45.877190609219 gnorm: 0.000670030970 xtb: 6.6.1 (8d0f1dd)
N            4.07736710483100        1.34715484389462        0.70720936355686
C            2.86831466889295        1.00544547290604        0.19694741054675
C            1.92549861304356        2.02162573250850       -0.05824742659426
C            0.58307019520082        1.83324404818761       -0.26601070015864
C           -0.21180130890393        0.67626343848101       -0.14258878188447
C            0.28050406016487       -0.67286046175431       -0.02244764952413
C           -0.60692219979201       -1.72324270285319        0.27694761303572
N           -0.12345566431210       -3.04371996068221        0.44601927684827
C           -1.97964647906153       -1.51278036364863        0.38518607971165
C           -2.50144497121528       -0.25953988983160        0.15409873605137
N           -3.78882259627658        0.13786319419276        0.17775491435695
C           -3.75534593644895        1.44767131307839       -0.06747997079880
C           -2.46422663635018        1.95439545112966       -0.25155647206937
C           -1.61006412245892        0.85933460211545       -0.12280079833975
C            1.65173786676079       -0.96711967550503       -0.37955347762579
N            1.89069511451519       -2.11380548075561       -1.04219565431864
N            2.73257018878359       -0.27158311638504       -0.10875845992094
H            4.33562526055344        2.31310620553493        0.79072744050396
H            4.79094460177850        0.64241345190267        0.76139280796696
H            2.29948644647956        3.03724681050446       -0.05270640679154
H            0.01315873691279        2.73572792441907       -0.44412194254108
H            0.69800543412284       -3.09731755676538        1.03546236808246
H           -0.85057761152073       -3.65199245187521        0.80074951606242
H           -2.63429505746929       -2.33818308047284        0.62703650152726
H           -4.67432206250272        2.00815508124186       -0.10965073163082
H           -2.21926100378217        2.97976155596566       -0.45718138597622
H            1.14963202153627       -2.78743006051377       -1.15285080293436
H            2.84303125001836       -2.35108596921981       -1.25939074494178
