30
 energy: -53.341217345987 gnorm: 0.000512388783 xtb: 6.6.1 (8d0f1dd)
N           -4.82660301714550       -1.04826308953083        0.23415786633976
C           -3.54124137774530       -0.57483335364444        0.21222786300936
C           -2.37631014561495       -1.33819099912499        0.05669887232422
C           -1.32886386841272       -0.41326628420891        0.01300457608976
C           -1.99621647616888        0.89105593242227        0.16805980643710
N           -3.31543240941200        0.75511865756917        0.25814386070534
N           -1.33184671039804        2.03077765003473        0.23495645069761
C           -0.01873127779044        1.99738105103144        0.12204849491710
N            0.59660120741026        3.26703587185612        0.21138699145651
C            0.75089447986355        0.82849431165687       -0.08550536926697
C            2.15994451547236        0.91731462872129       -0.36743052949012
N            2.61942019845131        2.00295724124223       -1.00998914055827
N            3.08825945871899        0.05806872593777        0.01072189051636
C            2.88703812119307       -1.19899934819854        0.37280286492056
N            3.84054283799351       -1.75498819937665        1.15064130360452
N            1.95065271387613       -2.02051451663484       -0.07885432786078
C            0.74215568798228       -1.66156981687996       -0.46376600785418
N            0.05709452798242       -2.58983298428318       -1.14713534984425
C            0.05846975589119       -0.43271415711648       -0.13546433130129
H           -4.95794787027880       -1.98201896655209        0.58862838162549
H           -5.50282005507885       -0.36884535954671        0.54523572159045
H           -2.34144099139980       -2.41289398392221        0.06076645492577
H           -0.12877439278156        3.94746537139122        0.41098674764646
H            1.32260186303002        3.30917245412377        0.91755521634796
H            3.61257716783947        2.10224095527027       -1.12881929152759
H            1.99409641450076        2.78265030961672       -1.15432915651071
H            4.67859565110391       -1.23191907631996        1.32931893331191
H            3.83995634122425       -2.75231801668453        1.26589945923937
H           -0.89034884301480       -2.40253911957693       -1.42733844547773
H            0.49169879760828       -3.47445959627276       -1.34125673881371
