26
 energy: -47.238839146427 gnorm: 0.000971536513 xtb: 6.6.1 (8d0f1dd)
N            1.00119716309868       -3.21728654078271       -0.90266782975895
C            0.29293742562696       -2.33786514031269       -0.67313675605328
C           -0.59260902554186       -1.29153878820193       -0.37342995845934
C           -1.94584742648095       -1.62713649902459       -0.57138749103794
N           -3.03391193731749       -0.99714851133026       -0.23533275570726
C           -3.02067773734199        0.24348373236950        0.29673727408774
N           -4.08609837043775        0.54300772961238        1.06428101864177
N           -2.17644467028266        1.21152720823076        0.05170679467125
C           -0.90419196401787        1.18647812871357       -0.29752611138731
N           -0.41051371840072        2.33517222120530       -0.73602505104774
C            0.89936515015428        2.53007875913599       -0.74034814769382
C            1.77932458427448        1.60932157458335       -0.21539485729561
C            3.17554825716071        1.63976548297351        0.01458544857516
C            3.56376700403283        0.41981873531921        0.51351331241326
C            2.44501283152381       -0.44580739405544        0.58570308764911
N            2.49324498881213       -1.65946887528916        1.16620408328385
C            1.30000918844075        0.28237270669927        0.11867205572832
C           -0.04335779135738       -0.00635976742068       -0.09980937615597
H           -2.13046296882323       -2.60574113582220       -1.00821327552306
H           -4.22567276219332        1.50067094550331        1.33487366767515
H           -4.85073492075086       -0.10780335329951        1.09592056057699
H            1.22919649730232        3.48719363231491       -1.12382334912687
H            3.81212541867200        2.48474457645767       -0.17303325277805
H            4.55806669193282        0.13978014692492        0.81041907668749
H            1.76950035529725       -2.33940477341916        0.99304945768968
H            3.40819330031712       -2.02905448178538        1.36983207204552
