30
 energy: -54.920745766048 gnorm: 0.000781329819 xtb: 6.6.1 (8d0f1dd)
N           -1.64615112465040       -4.56844444608368       -0.56837248433383
C           -1.51970746882157       -3.44169310211641       -0.39372451116652
C           -1.37494055451393       -2.04963991334480       -0.18501349817188
C           -2.55007988654622       -1.30810632710458       -0.11163646010169
C           -2.68982780598480        0.04117045701805        0.17004583699053
C           -4.03022575144122        0.45748713436970        0.33765896661252
N           -5.11897853195659        0.80236285516673        0.46877249410181
C           -1.70531654461256        1.07690385781137        0.28870859683337
N           -2.17907130639222        2.24436232575417        0.75817657882889
C           -0.32396841405500        0.99321651560675       -0.04566449795183
C            0.41010325813938        2.17606911215234       -0.31989734730402
N           -0.25125308131424        3.38541652320469       -0.59375144659975
C            1.80481401906906        2.21987621570444       -0.32053308869267
C            2.52563856357230        1.08051312380964       -0.04374740432977
N            3.84353611873628        0.84299956817737        0.03348330999672
C            3.90797908951128       -0.48383192981896        0.22283460690501
N            5.07233261023767       -1.13869458309502        0.33133186459913
N            2.72164182157181       -1.14924172001484        0.26621092097272
C            1.81897891326859       -0.18138159964663        0.11634846367657
C            0.41314827382907       -0.27270376806442        0.03231875997266
C           -0.07333869994138       -1.56792612416862       -0.01992563116964
H           -3.47613838700171       -1.86235068157002       -0.22088300156263
H           -1.55758743368729        3.03183453909007        0.86342589931947
H           -3.14981620503984        2.33119665444776        1.01240545469936
H            0.38667861238884        4.09619235527735       -0.92592444498286
H           -1.05266407642890        3.29959029724081       -1.20433610031287
H            2.31166967444432        3.14877534574068       -0.53834926132361
H            5.91700024898728       -0.60438423373251        0.42064716380657
H            5.05486673838849       -2.10937360549199        0.58526944929523
H            0.70804973324345       -2.31864893731902        0.02411359779238
