29
 energy: -50.399812505489 gnorm: 0.000867703008 xtb: 6.6.1 (8d0f1dd)
N            3.05807040818631       -3.94398797917318       -0.43680839208600
C            2.67070813842067       -2.87266099773834       -0.29432902488438
C            2.22018510087910       -1.54459068868233       -0.12604595347047
C            3.21453060988159       -0.55685367045985       -0.02442546425577
C            3.04659367750633        0.77529267121074        0.21605971163949
C            1.87871896536515        1.58077565855310        0.28936737733373
N            2.12411459622848        2.84308528657159        0.69538605470584
C            0.53829141591076        1.21571600827509       -0.02098541103553
C           -0.44115839657468        2.21680102707359       -0.26148207531372
N           -0.05592017784907        3.55666030116976       -0.50798491512322
C           -1.80711924735260        1.95643914846997       -0.25812000358406
C           -2.26103323114902        0.67399672177874       -0.02852597985711
N           -3.49430391536021        0.15133175922752        0.02596416865922
C           -3.26254477871220       -1.16702312608716        0.16239649989175
N           -4.26402216648716       -2.06575942763379        0.21220130586974
N           -1.96733192773761       -1.55464935461708        0.19753909286442
C           -1.29512666926743       -0.40090779330605        0.09096045438848
C            0.09195312274293       -0.17964150794653        0.03093835957268
C            0.85096598433762       -1.34620323298499       -0.01390106862788
H            4.23650984806718       -0.91222756289263       -0.08726821224372
H            3.96245033465762        1.33650743617760        0.36761116727111
H            1.35771616573431        3.49430148113950        0.79192336497688
H            3.04871702497359        3.10547558186405        0.98703491278108
H           -0.85728856683484        4.12055239934277       -0.76362285024707
H            0.66798383037660        3.64056913004017       -1.21177445175734
H           -2.50793537365703        2.75804289466964       -0.44370566187760
H           -4.03303925743595       -3.00422608497564        0.48406176486088
H           -5.19299246915243       -1.71960657183244        0.37048537374493
H            0.23846068470181       -2.24153012173406        0.00126075830359
