31
 energy: -53.859627013758 gnorm: 0.000906094674 xtb: 6.6.1 (8d0f1dd)
N           -4.27183563243231        1.98855689424251        0.37486554726521
C           -3.29962506198814        1.38713930801877        0.24694436920117
C           -2.08463893652232        0.69520945688011        0.10067763245742
C           -0.90057733355891        1.41468131962267       -0.04672856728481
N           -0.94994858710373        2.82866244338328       -0.08159898800498
C            0.34256557633709        0.74432929342791       -0.18064896694736
C            1.54649726123986        1.49911307974220       -0.44219032680338
N            1.46833632982484        2.60770167408776       -1.19707484489920
N            2.73733021751123        1.24568909045512        0.06795897752639
C            3.16437473320369        0.07645815797248        0.50743449480614
N            4.18215570587326        0.08439154755543        1.39109907516346
N            2.81004830345837       -1.10674264242712        0.01526636144238
C            1.62153985262911       -1.39075776212483       -0.45777872631512
N            1.53158687688545       -2.48148273751659       -1.22821313637102
C            0.38181034339753       -0.68388670209401       -0.16020025611835
C           -0.79392482571797       -1.40963965416936        0.01236138958449
C           -1.08520446797834       -2.78421327133304        0.13313238299624
C           -2.45205889895991       -2.91676684927330        0.31059321315278
C           -3.06695354861026       -1.65609381500107        0.29463171617509
C           -2.07071197321753       -0.71047300938403        0.13756865489730
H           -0.31454574469702        3.26408528842007        0.57708323053544
H           -1.89482082174368        3.16114050541603        0.07882886436702
H            2.29079760369078        3.17773178562537       -1.29248800783468
H            0.55741359869352        2.97213602675688       -1.43434938425450
H            4.66421393361143       -0.77703549271078        1.57414744848815
H            4.62013827073365        0.95937581592962        1.61548142785954
H            2.35540674169944       -3.03417904919687       -1.39058071287753
H            0.62532415950458       -2.80834264198135       -1.51911364958381
H           -0.37896904875301       -3.59541027475081        0.16638437896061
H           -2.96940463610220       -3.85195940597562        0.44054684812981
H           -4.11670926140862       -1.45911288349728        0.40855551488620
