30
 energy: -54.923681681976 gnorm: 0.000981096825 xtb: 6.6.1 (8d0f1dd)
N            5.53071766835895       -0.59114487818572       -0.32885377973702
C            4.39648255450489       -0.40209469335600       -0.27147595860819
C            3.02540811880979       -0.12421563287785       -0.18068378412439
C            2.11745803563660       -1.12772632272435       -0.48067186148974
C            0.73038911081026       -1.13259516812265       -0.34936237291572
C            0.14083775213556       -2.35785694047564       -0.69982269847334
N           -0.32696339746973       -3.37235002967262       -0.98320121634409
C           -0.16015252143124       -0.04325498146777       -0.07978503486936
C            0.30343488682863        1.34197332280964       -0.26629182696211
N           -0.51256872679989        2.29273078778901       -0.70089691524752
C           -1.82145605610800        2.09172030038536       -0.70900789498230
C           -2.38005500277408        0.95904538652041       -0.16755825711092
C           -3.73282414965084        0.56193671636536        0.08220778643109
N           -4.81599582027877        1.33452309081348       -0.12001194390003
C           -3.71279926048405       -0.73267009349146        0.59391031773179
C           -2.39391783315502       -1.19904642933029        0.65289869202733
N           -2.03951307809440       -2.35626544536691        1.24326836802554
C           -1.52371199766574       -0.15937494401957        0.15834159884979
N            1.50331377903563        1.76600230853729        0.09224971157826
C            2.64265906735825        1.17657133100369        0.30326444646311
N            3.56079662100311        1.88692355337733        0.99350729273620
H            2.55104242683129       -2.06777867597324       -0.80836592211597
H           -2.41155430588125        2.90644909242908       -1.11110026441180
H           -5.73663020758241        0.95445594578025        0.00573924601070
H           -4.71674567282498        2.23057670285986       -0.56073887789641
H           -4.57378324276217       -1.29396423246897        0.90703552162461
H           -2.77813072932415       -3.00941994860700        1.44924455214160
H           -1.13416840745657       -2.75832107939962        1.06397990228426
H            3.33800978952099        2.83933987967966        1.22494758876327
H            4.51715913261055        1.57744687399447        1.02973106421992
