31
 energy: -58.667065437775 gnorm: 0.001000786970 xtb: 6.6.1 (8d0f1dd)
N           -2.42654576152180       -3.95236515377985        0.71939054146991
C           -1.86949900844366       -2.97578345435675        0.48151637528185
C           -1.11475499458321       -1.81990997040297        0.21196395607689
C            0.29134427618222       -1.92373132822619        0.07952679831750
N            0.85634617584522       -3.20016605341015        0.12437678886129
C            1.08131749050608       -0.78890924950758       -0.12916468718177
C            2.47516548587751       -0.92094870479549       -0.51937756219128
N            2.82759317454604       -1.96889539385397       -1.27771286278201
N            3.46248325009524       -0.13902566929499       -0.15426788089205
C            3.36725772660982        1.08648932988464        0.34358606989880
N            4.39177111121949        1.51815993104238        1.09605439367564
N            2.44738184088057        1.99960659632164        0.03382615509094
C            1.20882832407535        1.73229748963952       -0.28336700188780
C            0.48234917523345        0.52949978004151       -0.17041334418895
C           -0.92194111452242        0.60625237569081       -0.14031817287640
C           -1.85202110844088        1.65437729921160       -0.19152182246123
C           -1.68413690104644        3.02198560085825       -0.34170830310344
N           -1.61331157944637        4.16749310550229       -0.45738192946019
C           -3.13438199325607        1.02213248955833       -0.03711451856616
N           -4.31878107324402        1.65476515264462       -0.07013296768945
N           -3.04299355900524       -0.29957824172938        0.11616855695849
C           -1.73209346634867       -0.58446755493979        0.06445736079334
H            0.20714710903082       -3.90591081549689        0.44673615436915
H            1.75123577342062       -3.26120441189734        0.58720580969593
H            2.14168911562191       -2.64747348374120       -1.56239179726414
H            3.78289362316471       -2.04199725147795       -1.58220613114189
H            5.19115697046320        0.92735831359589        1.23646622882219
H            4.42708088946525        2.49185909481427        1.34092698952667
H            0.64160322900527        2.61395123804845       -0.56420008462339
H           -4.35278555114920        2.65830916491311       -0.08313992661945
H           -5.14881380133493        1.12364223274327        0.12179810709047
