30
 energy: -54.137894075895 gnorm: 0.000673594030 xtb: 6.6.1 (8d0f1dd)
N            3.78617423648649        2.83010100172159       -0.00519357473580
C            3.10428054714360        1.90119660425946        0.01154077678739
C            2.29630333480083        0.75177314764555        0.03439062469144
C            3.00140418112097       -0.48408980013354        0.00694041850119
N            4.33042250038470       -0.44539359370777       -0.23165088549168
N            2.54550205715494       -1.70100253211260        0.24558624224898
C            1.29460820558390       -2.10269704381621        0.30069352173896
C            0.08129932048374       -1.47627025415997        0.03496599616093
C           -1.07966343357988       -2.33467497562112       -0.09203262770789
N           -0.92043441486216       -3.69990526325683       -0.16453470953392
N           -2.32464878287129       -1.93153310961607       -0.11132136469560
C           -2.54490819668846       -0.61209178144710       -0.04338879554288
C           -3.71620488530501        0.11442960794164       -0.01136694784788
C           -3.31258721066321        1.47083253147158        0.01244947488902
N           -4.13682716104114        2.54959819938826       -0.00594403659023
N           -1.98124272232719        1.62207840521687        0.00333034168600
C           -1.46014628485123        0.36376709994765       -0.02672760163675
C           -0.13664890608962       -0.04427513296360       -0.00134846408089
C            0.90067181689549        0.96670793297400        0.06194245954143
N            0.47026580322367        2.22385727378550        0.10339344661732
H            4.84200505225369       -1.30686185147192       -0.15782386889922
H            4.82120727337854        0.42780518757664       -0.31613365121270
H            1.23683737461431       -3.15071620670215        0.58192705941355
H           -0.12761292026999       -4.06497486627822       -0.66456190753805
H           -1.79238687983113       -4.17396401161336       -0.34744221768739
H           -4.72320576067993       -0.24910045139470       -0.01087201257085
H           -5.09685688896625        2.41112278809537        0.25743947501454
H           -3.72739268799624        3.44329603502902        0.20725194974873
H           -0.56232055465884        2.36556491749769        0.07360208780477
H            1.13297115805924        2.98247330684336        0.12137400322728
