27
 energy: -46.959588001576 gnorm: 0.000518678632 xtb: 6.6.1 (8d0f1dd)
N           -4.79960794602845        0.90139222654646       -0.46670817893793
C           -3.70876283786772        0.57638190331369       -0.28747659315725
C           -2.38046802540558        0.18991154064686       -0.05887173788095
C           -2.07694956295130       -1.18160911911228       -0.12734526720160
N           -3.08406599466703       -2.03393016410122       -0.43641912692600
C           -0.82634020755692       -1.76643737042731        0.14395783995637
C            0.43025491799623       -1.20686127006896        0.30390656194680
N            1.41045518533242       -2.10580677791728        0.51765069458703
C            2.67284543297795       -1.76123370479933        0.40756974151567
C            3.07016923915305       -0.48748852264688        0.01959549598051
C            4.31496586645342        0.12777071328022       -0.18618257079993
C            4.09097371156426        1.48536254355896       -0.42473028013070
C            2.72956837652996        1.74956453855112       -0.36821357966921
C            2.05958629505703        0.53531355913243       -0.10048828941326
C            0.71801822411297        0.23047269474381        0.12915427405963
N           -0.15524838446552        1.22341780440975        0.20571372631295
C           -1.45981449941480        1.23840278614277        0.27031719140951
N           -1.98692916415146        2.43475689834236        0.62328403250212
H           -4.01674582929025       -1.68907228545219       -0.58510559328092
H           -2.92429458078863       -3.02473221529386       -0.43395213489699
H           -0.81732659734396       -2.85036003144339        0.16003869247533
H            3.39152900093763       -2.54243511978619        0.62675555846073
H            5.27083930719625       -0.36261904810839       -0.15583699665214
H            4.85814174969442        2.21294238271331       -0.62164349730389
H            2.25461716572881        2.70330244597423       -0.50039427521002
H           -1.35132065876230        3.20547150933959        0.73326421506912
H           -2.97286215244079        2.61174037606175        0.53872788998530
