25
 energy: -43.511345458948 gnorm: 0.000714674978 xtb: 6.6.1 (8d0f1dd)
N           -1.12830931333619       -3.83637323271523        0.00439938511075
C           -0.53982965660855       -2.84930049585359        0.00255468350771
C            0.19933885720035       -1.64909458446119        0.00150063535310
C            1.58107017380907       -1.75137706856285        0.00044088352566
C            2.33639326914389       -0.59042693149687       -0.00082721723455
C            3.70881995541734       -0.30932170144697       -0.00209212175732
N            3.93485667913517        1.01170519169767       -0.00303543430695
C            2.75394599427148        1.62377126569936       -0.00248659920756
C            1.68339693528844        0.70023264725733       -0.00108834582185
C            0.29117609283236        0.83692077836281       -0.00009175347554
C           -0.26172299480808        2.12984751336148       -0.00065610336548
C           -1.57813248424017        2.55164566258845        0.00008852676994
N           -2.71938717265458        1.89518143538059        0.00173717783279
C           -2.85964501989800        0.57426644467687        0.00296900308423
N           -4.14927091795483        0.17626999991865        0.00471830674324
C           -1.87957683740797       -0.44585186043014        0.00264747194766
C           -0.49528931478403       -0.39240460463017        0.00135476090779
H            2.04895908876094       -2.72579893124740        0.00057942605736
H            4.52674384616720       -1.00584407690371       -0.00233015170030
H            2.71208285004164        2.69781462439315       -0.00308991473162
H            0.47028383957731        2.92613549061696       -0.00192427714117
H           -1.73336330289855        3.62727680924372       -0.00075054183928
H           -4.86189668506265        0.88468929844267        0.00491103922983
H           -4.40488085363830       -0.79434789984278        0.00568563336484
H           -2.29962122765330       -1.44622637264886        0.00367150624671
