31
 energy: -54.663790157960 gnorm: 0.000678269998 xtb: 6.6.1 (8d0f1dd)
N            3.49236915306617        3.66324172550907       -0.04881269038555
C            2.62998010382449        2.90645342281264       -0.00480081885324
C            1.56861101916998        1.98153665739363        0.05206756231385
C            0.26720707787826        2.42310023794646        0.19259608411802
C           -0.83381525702365        1.54231477247890        0.21950716832665
C           -2.11424537397671        2.14403647151249        0.20679887085039
C           -3.33559577276830        1.60703589980944       -0.09310181457890
C           -3.58783143678235        0.23276936881230       -0.33475379784730
N           -4.71229253858935       -0.12218376370487       -0.98870810678727
N           -2.87953367550514       -0.76032508328155        0.15925395192145
C           -1.65215964960615       -0.78411497885059        0.60989649763988
N           -1.36624025565825       -1.75802726310694        1.48264585110307
C           -0.58086267845255        0.12793542720705        0.24044866857485
C            0.71724517964350       -0.32930442075701        0.05317255613182
C            1.27748503386220       -1.63101996801573       -0.10362273102683
C            0.61932478261769       -2.84770653363879       -0.18126222976233
N            0.09373112864468       -3.87454640739926       -0.24468588262312
C            2.67232195908283       -1.47904728467371       -0.29507609149529
N            3.55460500620702       -2.50929813391095       -0.42581223169546
C            2.99892625856139       -0.11467831190812       -0.24784034339864
C            1.82618791937381        0.60146094232453       -0.06252736064563
H            0.07933426674334        3.48651311448473        0.23727271814708
H           -2.09893410325713        3.22101966111532        0.33000542696001
H           -4.17428987253358        2.27975271570728       -0.20996773615142
H           -4.88479446791557       -1.09664312057963       -1.16167778350158
H           -5.31932627580973        0.56996403867747       -1.38732339985249
H           -2.05170197332475       -2.47828259437801        1.63999731717168
H           -0.40956107011066       -1.95205472707197        1.72611351398129
H            4.46869999451208       -2.29597288759967       -0.78694274435954
H            3.18104553079839       -3.41500964889773       -0.65806250466470
H            3.98514010422747        0.29760190018278       -0.35045782311149
