27
 energy: -47.750529393526 gnorm: 0.000646788411 xtb: 6.6.1 (8d0f1dd)
N            4.62051246793945        2.56786838861942       -0.31938909095470
C            3.88273397044432        1.69943693229145       -0.19698736397115
C            2.99293734397431        0.60258380893557       -0.05533419827804
C            3.60185324197749       -0.65036245095828        0.13902888683173
C            2.97444593825645       -1.86284228377203        0.29801045732349
C            1.61648383724839       -2.17694799532149        0.20736924975573
C            0.48999352884529       -1.39091953429876       -0.00103669962808
C           -0.77321199720932       -2.06200048294252       -0.12905268131646
N           -0.81529816006062       -3.44332354414921       -0.22828847833942
C           -1.97241203180542       -1.36938155656235       -0.07579818990865
C           -1.97277913583615        0.01406952808118        0.03019191201193
C           -2.96304058550552        1.01084590735857        0.07313722316074
C           -4.34377978337114        0.83571279839947        0.08399985915880
N           -5.48262181874015        0.67380798832673        0.08741105094425
C           -2.24605156265719        2.23664618549011        0.08602213397750
N           -0.93707116320865        2.07341713068816        0.05440967081504
C           -0.71978709457873        0.73292619223287        0.02545984788997
C            0.50868022114172        0.07706203968872       -0.01110185149743
C            1.64099008299028        0.90203688611421       -0.07079151570112
H            4.68398592112532       -0.64389088749994        0.18865345352993
H            3.62560792789375       -2.70593675737439        0.49187705233551
H            1.41188014611291       -3.23069758889558        0.35008343403611
H           -1.73922681117050       -3.81498967517460       -0.38876586824051
H           -0.10923444948697       -3.88866265804856       -0.79256448230058
H           -2.90748820897775       -1.91064623139717       -0.13137985968378
H           -2.67611882913336        3.22158888758861        0.11672016618642
H            1.38300934259198        1.95419954707972       -0.13907117303735
