30
 energy: -50.124982352346 gnorm: 0.000762781338 xtb: 6.6.1 (8d0f1dd)
N           -5.71557423608286       -0.21979341283985       -0.12453980565610
C           -4.56600659039952       -0.25263331742767       -0.07587080481821
C           -3.16057243511151       -0.28200251122491       -0.02868032699982
C           -2.57645117388701       -1.54567643456430       -0.10786097438504
C           -1.25358431356109       -1.91159768084266       -0.08408645957798
C           -0.07390679367963       -1.14491418041007       -0.00193519120525
N            1.02182590326686       -1.89902555409812        0.04559016770967
C            2.24446672961636       -1.36767422336073        0.06936092999822
N            3.27198326548947       -2.26085119290607        0.15011699663051
C            2.43763367304544        0.00847104918103       -0.02622437413398
C            3.57564157555333        0.83811534741260       -0.09402546376285
N            4.89142079354441        0.42380254446263       -0.14915468858550
C            3.13001364706382        2.17054294868978       -0.05835616692611
C            1.74945008689816        2.19063564684646        0.00637748655694
C            1.27292863986055        0.86052324437594        0.01147695147620
C           -0.01843300894152        0.31302598650143        0.03767560651076
C           -1.12230015983596        1.17683056810461        0.09131662188121
C           -2.49286925025074        0.97169132702884        0.08348821594632
N           -3.28696704528433        2.07369342544686        0.21182960324418
H           -3.28743339319624       -2.36074371235192       -0.19230524659756
H           -1.05072581599514       -2.97343236851235       -0.13877821350187
H            4.13712546539057       -1.94159113220695        0.55262077056697
H            2.99118770388183       -3.20414880229816        0.36825359367169
H            5.05331904893533       -0.42887567652308       -0.66485696914660
H            5.54323938233198        1.15739868140647       -0.38765594420775
H            3.77225721743063        3.03276889263000       -0.08900219215426
H            1.15360916512258        3.08450172854488        0.03621949721214
H           -0.84606747428946        2.22377768789042        0.14906025989336
H           -2.87802854363620        2.98908781214582        0.15721058588981
H           -4.28055679418019        1.98895254309906        0.08229405467086
