31
 energy: -59.452686616192 gnorm: 0.000889273877 xtb: 6.6.1 (8d0f1dd)
N           -5.76198684521263        1.03776138304712        0.13592037043734
C           -4.66860536532642        0.67980657568816        0.11398106795465
C           -3.33695444472381        0.23059561744242        0.07266863406909
C           -3.14244864323385       -1.13128525940065       -0.29101616072171
N           -4.12472133103308       -1.78763699251023       -0.93070774795913
N           -2.11471340973587       -1.87870850661082        0.08299827385092
C           -0.90679182141506       -1.53257371703904        0.39697155798215
C           -0.24556754518385       -0.30288086671828        0.17106503195448
C           -0.91647445209079        0.97264202642968        0.08893436199936
C           -0.12522370070034        2.10657227554307       -0.16269552450851
N            1.18542192685862        2.12779992964361       -0.28437717627741
C            1.83513041173302        0.99108430031898       -0.12142077850053
C            3.22362357228086        0.75035467076745       -0.14397125989164
C            4.25335735460920        1.67651570908935       -0.29883301133768
N            5.14607686921969        2.39187890538696       -0.41902177094752
C            3.41747627055313       -0.63811602897314        0.02290876406006
N            4.60412690023868       -1.26771613755737        0.06163728784937
C            2.14639235899888       -1.27584455953769        0.15807745520620
C            2.00429706138633       -2.65086529937618        0.31080656990437
N            1.94186220209947       -3.79505616013182        0.43479904470376
C            1.15527863625628       -0.28277832426355        0.09383906158535
C           -2.31757166476647        1.16542071249789        0.34614548719348
N           -2.70757040896043        2.36943364945103        0.80156705880241
H           -5.00327862176762       -1.34127164980466       -1.13172156873695
H           -4.01781798610201       -2.77682028463321       -1.07865058347253
H           -0.30716356235153       -2.34978318130276        0.78544675689533
H           -0.59229281845592        3.06793734385409       -0.33939654581513
H            5.45269829951648       -0.74110232763695       -0.04892868847778
H            4.64552069907862       -2.26631038325483        0.16498344342580
H           -3.68767159305701        2.57294012771638        0.91250150050743
H           -2.03299651501218        3.08738061167424        0.99978457026483
