30
 energy: -54.931592614380 gnorm: 0.000682429463 xtb: 6.6.1 (8d0f1dd)
N           -3.85817591893606       -1.93587592438088       -0.95788244170142
C           -3.11301989996397       -1.15655952534115       -0.55775027330686
C           -2.28230918138528       -0.07621491479486       -0.18987636176745
C           -2.95328477659890        1.15459710172842       -0.26327990676887
C           -2.48280200625295        2.42190212567951       -0.05187819457497
C           -1.13870999440945        2.77875806404205        0.23751379285886
N           -0.91273947208013        4.08762051655462        0.53386362904796
N           -0.04925707826798        2.05216681708606        0.17548740407211
C            0.10177904196559        0.71815930770104        0.03474419482473
C           -0.90587443699535       -0.32641901932888        0.06855614254119
C           -0.47398532327532       -1.66335285208259        0.26222104995129
C           -1.37652407787967       -2.68542898077001        0.62409912687693
N           -1.98743643326424       -3.57245010647109        1.02470903036411
C            0.87178949184181       -2.06101906078331        0.19837734878199
C            1.81447860172358       -1.09662784209737       -0.03874912212108
C            3.24478525963770       -1.05869450177097       -0.17083625190638
N            4.07168575780250       -2.11136462013111       -0.17235595230279
N            3.70573396595720        0.19478171469539       -0.27984702276961
C            2.63495926419876        1.00918738705247       -0.22013081194628
N            2.69420137873435        2.33694845124316       -0.27994317845105
C            1.41402497859925        0.27873084085734       -0.08605185969383
H           -4.00865226891592        1.07092939089760       -0.49818741756860
H           -3.19149962724589        3.23721230369818       -0.09893493653408
H           -0.00157801019675        4.35055610716750        0.86684937875993
H           -1.68519869568657        4.69747388265407        0.73073642034129
H            1.11679132775538       -3.10452710984033        0.33588299590706
H            3.71150535173772       -3.04697411082276       -0.13365054963670
H            5.05541986975218       -1.95379487560975       -0.29946106367655
H            3.57573557499862        2.81257108028371       -0.34884156781685
H            1.80148560004506        2.80617623847957       -0.18091841267513
