27
 energy: -51.776914719804 gnorm: 0.000622541946 xtb: 6.6.1 (8d0f1dd)
N           -5.87254661638073        0.82961167514542        0.86824392188245
C           -4.79021703391028        0.50140553513368        0.66919427258669
C           -3.46920300531214        0.10427209527485        0.42183787459242
C           -3.05675473232598       -1.19438313127545        0.08576016127748
C           -1.66118471086032       -1.17594881767201       -0.06998199397163
C           -0.76672750524608       -2.16340085906073       -0.46435990332903
C            0.59076222559015       -1.88041975026999       -0.53260141466221
C            1.51549630936088       -2.89371614009379       -0.85569097203252
N            2.25653818345693       -3.72469287588178       -1.13372916133136
C            1.09079145914330       -0.59707539127250       -0.17331492150510
N            2.35427447360223       -0.49216605864038        0.14035930437572
C            3.03160739325126        0.60544608276436        0.49571229334701
N            4.11436140432467        0.37154815161628        1.25259365407693
N            2.84824398691374        1.85244508308238        0.08724293697394
C            1.69202756480051        2.27696019130284       -0.41284084471738
N            1.72976557116240        3.44120575085452       -1.07939687807577
N            0.46947148473840        1.77905873047198       -0.22078538196829
C            0.12663011927677        0.52914624830151       -0.02760876869060
C           -1.21736402966540        0.17584091625670        0.16552911754101
C           -2.34641891921120        0.94995883094834        0.46204032160601
H           -3.70092696484885       -2.04422699353365       -0.04416903397053
H           -1.11099977337566       -3.16481396095084       -0.68285773094561
H            4.38086536460954       -0.58120740327471        1.42999009466564
H            4.75493964861972        1.12358036257520        1.43393064922637
H            0.86682699695556        3.87510380234278       -1.35459412970528
H            2.60022260506369        3.93692907951014       -1.14902191123127
H           -2.35386513513372        1.99762051744484        0.69617648488412
