28
 energy: -50.700428567761 gnorm: 0.000280797033 xtb: 6.6.1 (8d0f1dd)
N            2.18878899623929        3.37107497298720       -0.01421000658171
C            1.86150981789811        2.26862487215134        0.00970981358305
C            1.55124439833970        0.89457736192318        0.03564210844487
C            2.62695458051384        0.00065754561423       -0.28209120814051
N            3.74089264070182        0.54226295436429       -0.81767327169367
N            2.69164385325027       -1.29351091550989       -0.06612196873565
C            1.68426996492458       -2.06592673327886        0.35281595937116
N            2.07194707319791       -3.24240041844303        0.89364489327318
N            0.38546754084926       -1.91638989410055        0.20674575461823
C           -0.31598243318972       -0.80565152860975        0.06567571540342
C            0.20042021097079        0.57302200963717        0.23812928915112
N           -0.60460137016728        1.60912419266952        0.44513953810381
C           -1.92673782393732        1.49112792579771        0.34013802620533
N           -2.64223152800634        2.58635170293467        0.65174484412053
C           -2.51962895027323        0.28651950151885       -0.08458473009848
C           -3.83474160679262       -0.11818339573093       -0.32011754008979
C           -3.82428099461230       -1.49458411449291       -0.59177166558038
C           -2.52928913442310       -1.96788848759626       -0.51635715741603
C           -1.68234893644810       -0.87658998410430       -0.20507821546890
H            3.83652575266150        1.53951208776995       -0.90201614420404
H            4.53481087891514       -0.05597740312739       -0.96210852573369
H            1.37195725950390       -3.94470370372302        1.05315910348616
H            3.04133468337553       -3.49869537593928        0.84249491095577
H           -2.14339240532274        3.42377197903531        0.89760807946563
H           -3.63067135224698        2.61591574126616        0.48346603871223
H           -4.71144466093199        0.50502156305150       -0.29444544977241
H           -4.69506973261768       -2.08184140116300       -0.82232791476757
H           -2.19999266717200       -2.97806080490217       -0.66795953291205
