24
 energy: -43.777066800811 gnorm: 0.000502246367 xtb: 6.6.1 (8d0f1dd)
N            4.27716747329468        1.79477361107775       -0.12557196575533
C            3.41996497483142        1.03428756696354       -0.05292018343781
C            2.35259648331410        0.11260800772947        0.01462362244809
C            2.64819910835286       -1.16570830670407        0.51370360302744
N            1.98674818155256       -2.26593553407373        0.29863758106320
C            0.77038461405594       -2.42277293981521       -0.16024685554298
C           -0.30417263428010       -1.52757302775790       -0.11007642766224
C           -1.61738220901087       -2.07722729416956       -0.17192423373940
N           -2.72598249359259       -1.39989919547646       -0.12593465877619
C           -2.64250043222601       -0.08809991396970        0.04602514966640
N           -3.65385473267263        0.76301679139902        0.10215240928480
C           -3.11204081567619        1.97798094007637        0.30792787877957
C           -1.72628189939291        1.97482442843615        0.30993086870462
C           -1.34832917665867        0.62584726568125        0.14425885022441
C           -0.17164110267070       -0.09080087702694       -0.03302967683399
C            1.06823457898152        0.59199573554322       -0.33359591337684
N            0.97596424670896        1.81300128332132       -0.86803198722687
H            3.59232068212574       -1.29713535788866        1.03199653671919
H            0.55918122793829       -3.43769402437023       -0.48397448502598
H           -1.72132676352235       -3.15169237255041       -0.24170262704560
H           -3.75606663063051        2.83010112410684        0.43282884518901
H           -1.10136045745858        2.82353505420259        0.52148105482903
H            1.80471621502101        2.35081827122255       -1.06678889226876
H            0.06645135121420        2.19200416834232       -1.08443847424515
