27
 energy: -50.971066387249 gnorm: 0.000886749118 xtb: 6.6.1 (8d0f1dd)
N            2.61780337814550        3.29872810819439       -0.30165697254076
C            2.19202384763095        2.23151478404013       -0.24439950460671
C            1.77848683366064        0.88871356572334       -0.16113558322630
C            2.78035392564556       -0.04950627142466        0.25845699230742
N            3.91398616305205        0.45329890909742        0.78564213735423
N            2.75983802820217       -1.35846852724293        0.13647286687426
C            1.71131921225775       -2.08651602972462       -0.26032742734181
N            2.02746927227206       -3.31110010734621       -0.72768647600783
N            0.42202541719388       -1.84704637251424       -0.13744657522731
C           -0.19328692811347       -0.67756102181306       -0.07404016360094
C            0.40635518970539        0.63890531494086       -0.34353446820684
N           -0.33265157697558        1.71325401000514       -0.64417863568636
C           -1.64443576105603        1.69350696133056       -0.52701436352344
C           -2.30506000373593        0.59418130577842       -0.01428840546197
C           -3.65197419189859        0.24484315364832        0.28647610814889
N           -4.73467808218560        1.03523984392203        0.24393462980479
N           -3.75261402686479       -1.05652377325907        0.64099210210543
C           -2.53060145337372       -1.57560416055373        0.58113929126930
C           -1.56425371741238       -0.62401410438177        0.19480097331971
H            4.07184964180642        1.44606373377817        0.81065741155319
H            4.65535983055240       -0.18476147157503        1.01452861274344
H            2.98353719810730       -3.61405936595975       -0.69131593269069
H            1.28768463762060       -3.96680877568794       -0.90193848723374
H           -2.15220388464709        2.59921559300839       -0.83715963657600
H           -5.62906165098796        0.63705265139563        0.46758972797482
H           -4.66046811638337        1.99950034040354       -0.02037303756384
H           -2.36456471861873       -2.61077261298323        0.81366037773957
