28
 energy: -47.482791938559 gnorm: 0.000370389448 xtb: 6.6.1 (8d0f1dd)
N            4.46243813515953        2.77354556378664       -0.01281728976724
C            3.86838940426002        1.79231736864107       -0.00760277206067
C            3.13201700198830        0.58097726138009       -0.00318732037875
C            3.89082330801052       -0.59196621705508       -0.00187734195126
C            3.41430003498158       -1.88943881001064        0.00148437943034
C            2.10115478929513       -2.33309468249071        0.00354915115349
C            0.87299102995586       -1.65936777800796        0.00292396549254
C           -0.27229804591809       -2.47005280994327        0.00482318448328
C           -1.56113368713039       -1.97229132656918        0.00444555721173
C           -1.75254622316310       -0.60339327645768        0.00179157672958
C           -2.92231067816669        0.18176248033451       -0.00266251257766
C           -4.23729932756918       -0.26957369860625       -0.01852071030889
N           -5.33589746422232       -0.61412961763361       -0.04239044611777
C           -2.52182965967652        1.54605386742793       -0.00752531108191
N           -3.37261999106572        2.60172907926991        0.04072913141661
C           -1.12342959644668        1.60421179196172       -0.00646445766092
C           -0.61421572101928        0.29819575772217       -0.00035717939554
C            0.70563118974512       -0.19699633353272        0.00047267866711
C            1.74366228620314        0.73115092872044       -0.00122587167209
H            4.96599530539033       -0.46079835784831       -0.00346027277804
H            4.16872719193590       -2.66591927693768        0.00249698390767
H            2.00173590934254       -3.41332943309863        0.00591191338032
H           -0.13327745497585       -3.54151782259631        0.00684760556300
H           -2.40801522693544       -2.64305544238214        0.00603511916847
H           -3.01754756408831        3.52117200023241       -0.15481453958211
H           -4.35047625580168        2.43557993712992       -0.12618880615221
H           -0.56754137593847        2.52351838086797       -0.00942599299641
H            1.41995740884983        1.76510362339542       -0.00133298342274
