29
 energy: -50.425430857379 gnorm: 0.000601679207 xtb: 6.6.1 (8d0f1dd)
N           -1.81580853836724        3.22595044934367       -0.15663973803285
C           -1.86252097005673        2.07135085489781       -0.12660773625025
C           -1.95514648828493        0.69261561598988       -0.08591597954457
C           -3.16341891501730       -0.03193064902084       -0.27865051141640
N           -4.40227188032925        0.51213500783439       -0.39101714896715
N           -2.98251737381616       -1.35749719037046       -0.26733551903835
C           -1.66594194493803       -1.55295912879054       -0.09757267706130
C           -0.98137180444549       -2.76096270781012       -0.02306603056260
C            0.38450985880043       -2.74038586677052        0.11779228144501
C            1.13539741128092       -1.54673166977551        0.17747729041800
C            2.54402966382399       -1.69906448378033        0.20368159750360
C            3.53448367108440       -0.79533144194786       -0.04837496863365
C            3.33181306642061        0.58841792671108       -0.30338729312384
N            4.30834318906050        1.28202131865620       -0.92403589022316
N            2.32020516478654        1.29989298051529        0.13335710395386
C            1.13651898264723        0.92561805047877        0.56494788665409
N            0.52392601858119        1.79493428034222        1.37811296535369
C            0.43819036268585       -0.29206960231102        0.21323964773498
C           -0.94560946821002       -0.30077580436446        0.03863290397628
H           -5.12820753929271       -0.10415761664742       -0.71448107690764
H           -4.46925443159928        1.48278850358690       -0.64689586029336
H           -1.52411982559999       -3.69032489595378       -0.09405691800574
H            0.92471633716003       -3.67618492126295        0.14350268128497
H            2.87408705209722       -2.72397161510248        0.33254159587818
H            4.55186652728382       -1.15521332045946       -0.12141116806685
H            5.11507494385754        0.81758002568214       -1.29783962081071
H            4.15797800454626        2.25552786544817       -1.12170447813058
H           -0.45091341081201        1.68143619276722        1.60045847006341
H            0.93541210215281        2.70471286841415        1.50525719430292
