28
 energy: -51.477548492210 gnorm: 0.000657912885 xtb: 6.6.1 (8d0f1dd)
N           -3.22355919885385       -2.64069340058232        0.06327578877609
C           -2.62799263830340       -1.65811161011809        0.03627856204979
C           -1.99221895229712       -0.39062882286539        0.01211234196766
C           -2.85460215448751        0.72130304811822        0.09515304801673
N           -4.17519657543605        0.48243668479397        0.26304883778231
C           -2.45827716535369        2.06498354517824       -0.01444483186109
C           -1.19321475742080        2.57411853867404       -0.16372657522904
C            0.05894359852213        1.94708552138150       -0.16059375631477
C            1.09585005152402        2.89209433531179       -0.35545307143325
N            1.84046798032623        3.74187942513336       -0.55820560791408
C            0.39652061327160        0.58120134434100       -0.02713533775447
C           -0.58405499948294       -0.50556114255779       -0.07215475126406
N           -0.22688160649597       -1.78310451601885       -0.17657612045153
C            1.04396998387435       -2.17983239502707       -0.15288430266790
N            1.25829585197164       -3.49185457862389       -0.31843238506835
C            2.06965660467816       -1.24554315950590        0.05786563855839
C            3.44852626256448       -1.30173993614456        0.24477446921587
N            3.96441661857523       -0.07327125164573        0.42643785553203
C            2.97177940620458        0.79854894490923        0.34121962488116
C            1.72540788292343        0.15613099243591        0.11062780215188
H           -4.83121494595089        1.24244439710544        0.27337152359011
H           -4.52019992261575       -0.46191103665960        0.29781056969888
H           -3.26550516282217        2.78638872855517        0.00471090687855
H           -1.14201306975423        3.65157166762104       -0.27911097142141
H            0.46063138080469       -4.09480055886693       -0.42705203630633
H            2.18445465177321       -3.87434825035071       -0.26514276252865
H            4.08731983622391       -2.16601645232239        0.26970868797214
H            3.16715281043673        1.84392058903035        0.47659490074331
