26
 energy: -48.043226398818 gnorm: 0.000534284325 xtb: 6.6.1 (8d0f1dd)
N           -5.05266208535016       -0.42686146114198        0.45048396552161
C           -3.94394609009395       -0.70105155738285        0.32287304618149
C           -2.60733638698141       -1.07446050362995        0.16802853470018
C           -2.13374645359148       -2.40576655837940        0.08849508534323
C           -0.76197601428365       -2.40514423276835       -0.07589056265675
C           -0.31613776222988       -1.06994076962058       -0.10364438347360
C           -1.49550344269076       -0.22624158409610        0.05788908658225
C           -1.35164545420869        1.16353893289778        0.04025786267738
C           -2.46289890976636        2.02921517627769        0.17281815398031
N           -3.32866556559403        2.77211194361940        0.28056719338168
C           -0.08775883378617        1.71662641556576       -0.12522288943691
C            1.07199790733394        0.93229794696172       -0.21210409050670
C            2.29975906881238        1.61068322065730       -0.41264542114843
N            3.52589158898846        1.22021198867557       -0.22088639347695
C            3.91772954279642       -0.02165760501609        0.06387613575155
N            5.11240377469199       -0.14306452448335        0.65685332429132
N            3.33556201346540       -1.16474942307846       -0.31855867840213
C            2.06835513462209       -1.35472631571586       -0.50170995155620
C            0.95765796000978       -0.50991359147283       -0.21848339233620
H           -2.76316332408062       -3.27527455559520        0.14759123992253
H           -0.14738964674942       -3.28284066443249       -0.14765065225010
H            0.00988611940006        2.79187172919508       -0.16592108322725
H            2.22754184845309        2.65869928650863       -0.69061642344517
H            5.64904226947281        0.68295542022893        0.85596200472769
H            5.50851123135764       -1.05742214749538        0.78656907920380
H            1.83075457890282       -2.34533786717911       -0.87675820634871
