32
 energy: -58.359897341203 gnorm: 0.000388987308 xtb: 6.6.1 (8d0f1dd)
N            5.51023888955700        0.46251878474698       -0.26205033606016
C            4.43097536935511        0.06762958571655       -0.22199027619695
C            3.10194906216135       -0.39173707531700       -0.17285795268204
C            2.84732094998845       -1.66420542382381       -0.69688096611265
N            1.84788434070348       -2.43096952823703       -0.38867325936792
C            0.71555116237070       -2.11395702588003        0.21920295302820
N            0.12965338540859       -3.12043095502978        0.88354193017502
C            0.01630617185017       -0.86653507298090        0.09067366148739
C            0.71305666507853        0.40118905628790        0.12550236427411
C            2.13047635564612        0.48981385735661        0.37081284887601
N            2.59463876673783        1.52782738512402        1.08243479964663
C           -0.03607642015634        1.59712454905488        0.03423977535501
N            0.60340482490614        2.85480913681032        0.01545686842331
C           -1.43770073083204        1.58250443320474       -0.04687886749392
C           -2.13827606845654        2.79491966067741       -0.18836981102553
N           -2.65555122595985        3.81322696717083       -0.31536450253631
C           -2.12919581202606        0.37218696142965       -0.03246406582603
N           -3.43892402583176        0.16565221185509       -0.11461972238400
C           -3.58837003606119       -1.17790092960844       -0.15582126922417
N           -4.83502976067224       -1.72149640015377       -0.19791444038054
C           -2.37077729102230       -1.86911920563623       -0.06885249178362
C           -1.38132326229824       -0.88225639841270        0.02296235761677
H            3.61067337786797       -2.13022293354810       -1.31032785035021
H           -0.75800068874977       -2.97873463511730        1.33262284146181
H            0.58308290529745       -4.01722583037042        0.91009951013944
H            3.58891163738324        1.66519574993600        1.17321971876391
H            1.96020747210954        2.26859683584797        1.34666385522076
H            1.36383481754777        2.91931729248431       -0.65041375982826
H           -0.06427583957296        3.60201852365103       -0.13895275594427
H           -5.57264036810223       -1.07643948562317       -0.42895076304029
H           -4.92824126243271       -2.65837056899678       -0.55228942438283
H           -2.26700645018155       -2.93508759302660       -0.13984771353829
