27
 energy: -46.985061819079 gnorm: 0.000347140339 xtb: 6.6.1 (8d0f1dd)
N            1.71032170979289        3.33409159819520        0.27997138709188
C            1.93509510465970        2.20230357548557        0.26111796252257
C            2.20179109473850        0.83987989191790        0.21665922111120
C            3.45607801809568        0.26092902689366        0.45164397239114
C            3.35123432497901       -1.12606973439712        0.40453684479380
C            2.01845215926957       -1.45845042481161        0.16944335236156
C            1.36621548234370       -2.68688182553656        0.02048218122410
C            0.01566370591478       -2.71350883866966       -0.18537023787322
C           -0.76422902564828       -1.52859163674521       -0.23675838697057
C           -2.16485246904046       -1.68314126799061       -0.33436875982235
N           -3.12775619849503       -0.87072974946465        0.00301359723793
C           -2.95551024798214        0.41770663334749        0.31682934824133
N           -3.90263383474794        0.96754946589039        1.09252139566123
N           -2.05551881196982        1.23494384925868       -0.20501678052034
C           -0.85204460783886        0.92726310504861       -0.61500085785833
N           -0.27309648116316        1.77294730432954       -1.47213453072977
C           -0.10119311007881       -0.25898646500437       -0.20927994852633
C            1.26454554892950       -0.22448591999357        0.02822072439297
H            4.35571083243028        0.81997564293825        0.64048018545168
H            4.15865008086405       -1.82146898435843        0.53995445250164
H            1.93216028235684       -3.60533286383577        0.08122259641029
H           -0.50215216537335       -3.65755617784637       -0.27236621800967
H           -2.52311366309677       -2.67306759160087       -0.60532977502435
H           -3.89109677807081        1.95755273594407        1.25918420906165
H           -4.68588629602483        0.40750244476150        1.37687104723194
H           -0.72878603773149        2.65220909069161       -1.65507157914338
H            0.71196660218705        1.70102691195248       -1.66561861870870
