29
 energy: -50.400415405909 gnorm: 0.000589246920 xtb: 6.6.1 (8d0f1dd)
N            5.28060365564514       -0.45504057290136        0.23133795812854
C            4.13650087531616       -0.32092124061455        0.17135871141933
C            2.74973913991167       -0.15109294820578        0.09147724313895
C            1.93506954157475       -1.30362975170602        0.21091526887265
N            2.57067419038760       -2.48109799643184        0.46072429434895
C            0.55054669415658       -1.35286787575618        0.05227696883472
C           -0.40227445673559       -0.33393456027525       -0.00345523647975
C           -0.09888813831385        1.09436000835342        0.18871856632000
N           -1.04016942848604        1.97436234626249        0.53523630226182
C           -2.31663572076397        1.63725803291432        0.52483115736832
C           -2.75084203320408        0.39665395086217        0.11092882910499
C           -4.03519208697072       -0.20024866430319       -0.04973379627473
N           -5.22723641325062        0.44091755177558        0.05213371135936
C           -3.83568739377232       -1.54685632115467       -0.38826264807091
C           -2.47483756376726       -1.81124217391316       -0.43153135541915
C           -1.76687326561357       -0.62798570617110       -0.13682503755468
N            1.07740122905969        1.65378421360494       -0.02080804060827
C            2.27834250957293        1.16132786370758       -0.19935045136839
N            3.17794080907788        2.06348253125280       -0.66026246578081
H            3.57548423369117       -2.51799268029636        0.45989672568005
H            2.05866928536169       -3.34341491908981        0.41835687056070
H            0.13862344401369       -2.35586601524551        0.04298571962689
H           -2.99942044872499        2.42027186757455        0.83852178617424
H           -5.24680440716049        1.35329513550366        0.47316060121500
H           -6.06653984842166       -0.10988235958406        0.10636185302861
H           -4.62035844280506       -2.25616429493463       -0.58074957197887
H           -2.04332905577142       -2.76646342862971       -0.67066516882329
H            4.16056131899286        1.85117756285943       -0.67230729437550
H            2.87174237859466        3.01840582284583       -0.72918547911350
