28
 energy: -46.670835274268 gnorm: 0.000973583409 xtb: 6.6.1 (8d0f1dd)
N           -1.04676292555070       -4.27316278184686        0.39139733896496
C           -0.56440739948896       -3.23716055749966        0.27884054529782
C            0.07870654221727       -1.98847822866242        0.17382535715460
C            1.46862809101949       -1.92799789149538        0.32364557914778
C            2.11124048009393       -0.72736459790707        0.13961293115862
C            3.48054223691908       -0.37041387353857        0.15486471809308
C            3.58064965968841        0.97881021216852       -0.10300546835743
C            2.28684758722123        1.52278384007833       -0.26915375884695
N            2.02481761821830        2.84055904400571       -0.55207582609996
C            1.34715869509706        0.48050996168997       -0.09778468231606
C           -0.05435020759977        0.47216618287811       -0.06933851232869
C           -0.76703163629258        1.64517422365084        0.19167631092214
C           -2.14602678379091        1.88468912485016        0.24584126409601
N           -2.53512667834769        3.13198018941933        0.64745263928684
C           -3.14985410332223        1.02075403229992       -0.21550596746560
C           -2.95882137269602       -0.27333420402113       -0.67481366634739
N           -1.94294578855640       -1.07616793077612       -0.51410664726044
C           -0.70009711464166       -0.84541055718813       -0.12315260833342
H            2.01900586371277       -2.83506326512290        0.53029123182629
H            4.29557223634821       -1.04795682278425        0.32978548824406
H            4.49118364213293        1.54620078181221       -0.17890270470238
H            1.17034613911838        3.02134601160089       -1.05866932249095
H            2.81955223493682        3.36718510058390       -0.88400766399567
H           -0.15539147601934        2.48357146164205        0.50386729276279
H           -3.50592431470238        3.29170534547640        0.85335829360262
H           -1.86909699111562        3.72384316151525        1.11305772431737
H           -4.15754946430289        1.41405601966006       -0.24249109720016
H           -3.80249830369923       -0.75427605429080       -1.16375396022969
