32
 energy: -59.167140079105 gnorm: 0.000704004507 xtb: 6.6.1 (8d0f1dd)
N            5.04326497483386        2.44969393135580       -0.52691769472236
C            4.00918514678352        1.96318356591598       -0.39091542042399
C            2.74545181335855        1.36711588146081       -0.22834710899362
C            1.64729069683472        2.21286130949346       -0.42951254874216
C            0.30856253528187        1.97243693848268       -0.28777223378725
C           -0.39180177099179        0.76016644924332       -0.06619832197663
C            0.21420528728046       -0.54923359143792       -0.08381877689317
C           -0.61588900759894       -1.67051457990362       -0.33713857737276
C           -0.06311316368183       -2.91226533082652       -0.71563328818519
N            0.28432342559421       -3.92322398135806       -1.13639432304181
C           -2.01523197078987       -1.59706705535912       -0.34726708738422
C           -2.59533719272418       -0.38773885996211       -0.07441583560438
C           -3.94870679051172        0.06735134425077        0.06409062822868
N           -5.05686532805088       -0.67645583621982       -0.02645060608857
N           -3.99795306616187        1.37801300583305        0.32014623430528
C           -2.72930739397486        1.83145727525723        0.33930021529949
N           -2.50022520656321        3.13356850658719        0.60083889208873
C           -1.78390983162974        0.79145294321252        0.07490140193638
C            1.57880008256788       -0.81513054510338        0.23527715688214
C            1.83241508650066       -2.09371487877884        0.77718365288751
N            2.11338804397035       -3.05809594921760        1.34007543020975
C            2.72584702598388        0.00759320666315        0.17585994023282
N            3.91471776934550       -0.54517102433937        0.50007537407850
H            1.91709743214745        3.22583045913705       -0.70776390166964
H           -0.33146301161630        2.82068923063878       -0.48668386038698
H           -2.58869437439521       -2.48951447567297       -0.55235440238394
H           -5.94948379553437       -0.23446599329421        0.10264794743582
H           -5.00322851251868       -1.66615555995465       -0.18261159635405
H           -3.30629096806141        3.66300044595209        0.89348216025452
H           -1.60361512145932        3.41321448407637        0.96264045952667
H            3.97692860152372       -1.51780009306466        0.75011886412864
H            4.75761196835962       -0.00068856676788        0.42639364131452
