32
 energy: -59.960053492517 gnorm: 0.000623764227 xtb: 6.6.1 (8d0f1dd)
N           -5.38643052024002       -0.73417369730430        0.63539040186575
C           -4.40808471743207       -0.20026290449438        0.36352971674494
C           -3.20839058467394        0.48524509505500        0.04976692397524
C           -3.37678335502520        1.66349671110184       -0.68201203231348
C           -2.44220009866614        2.64965971338369       -0.90871723411487
C           -1.11629080111050        2.68041421270245       -0.49392047258403
C           -0.28836767986478        1.66639150831540       -0.02279186964415
C            1.09510309447145        2.01316110174260        0.20299727494513
N            1.45390774824164        3.32829239336299        0.33955283706439
C            2.08080948783406        1.02971937130294        0.17625984662856
C            3.42665422172898        1.39903979695309        0.37768022005505
N            4.49516300463556        1.76870060365107        0.57581225378706
C            1.71763188407369       -0.31243304608553       -0.04495965982087
C            2.48192039124483       -1.47240855650561       -0.21375733550993
C            3.87536170616642       -1.56280672827944       -0.28463052173363
N            5.01717634866993       -1.66941288063340       -0.34872491300893
C            1.59135265216571       -2.56470528137234       -0.33620412325398
C            0.28710319271387       -2.11469485125613       -0.20140819246614
C           -0.84888698794405       -2.90773666974331       -0.36063295356082
N           -1.79628630364380       -3.55094541592756       -0.47790859537213
C            0.32304397240840       -0.68458355386573       -0.01501580567229
C           -0.67137921309462        0.27469419834019        0.10801018302745
C           -2.01273525651970       -0.11740263297686        0.48769075654262
N           -2.11419811205710       -1.14626624159927        1.34022495784667
H           -4.38379016384211        1.84865276561381       -1.03472946031271
H           -2.79260994525491        3.52939556237675       -1.43085493205832
H           -0.61699143920710        3.62242904526828       -0.68126302744404
H            0.81006955687508        3.96587571011340        0.77530361756170
H            2.42988295952061        3.50239797119019        0.52495438170760
H            1.88532971904030       -3.58232151490893       -0.51744615935744
H           -3.01592321023829       -1.55469579941976        1.53508372775831
H           -1.29611997347623       -1.66174766280145        1.62035239041762
