28
 energy: -50.677223880443 gnorm: 0.000492814828 xtb: 6.6.1 (8d0f1dd)
N            2.53643706929357        3.37585088789885        0.06804293943534
C            2.16208924290226        2.28800368909767        0.06010408768072
C            1.81701265139028        0.91944127927041        0.04230596873269
C            2.90697817389203        0.00901248786225       -0.07774644979897
N            4.14187490224267        0.55589763209871       -0.19847217283051
C            2.81768610352290       -1.37415890986537       -0.05375434511027
C            1.66558627420464       -2.17301253556486        0.06851103982190
N            1.85636264641095       -3.51484869737436        0.15222437329977
N            0.38657357140637       -1.84933404782139        0.06100865237478
C           -0.19009938048594       -0.65438328655776        0.04046233942698
C            0.43268664216970        0.66983783507545        0.11500366457954
N           -0.28803766406517        1.79950146328767        0.22391899561160
C           -1.60495295209051        1.78682870840366        0.20046451816403
C           -2.31559110099267        0.61643518452740        0.03699158756538
C           -3.68465323561596        0.23320554362403       -0.04511207045118
N           -4.76352477135146        1.03539958428796       -0.04974436182645
N           -3.81007553092100       -1.10680562207445       -0.15294086271385
C           -2.58136548521533       -1.61914713922050       -0.14371065126519
C           -1.58939550443112       -0.62466683013741       -0.03322427188566
H            4.95130900709332       -0.03072430419330       -0.28231550601020
H            4.25364766303181        1.55489182503339       -0.20663543388441
H            3.75547170450185       -1.91233288568594       -0.12282235911450
H            1.04233133148331       -4.08936786435408        0.27744434793133
H            2.77069939342049       -3.91458813556576        0.25019304941595
H           -2.07695638421220        2.75649879619265        0.31030924124380
H           -5.67182950232960        0.60673412286225       -0.03218434743308
H           -4.66935870418087        2.01593447594416        0.14087776857931
H           -2.43241185987434       -2.67993507245141       -0.21469770753878
