27
 energy: -46.956853659968 gnorm: 0.000881493605 xtb: 6.6.1 (8d0f1dd)
N            0.10948477201240        4.15153933741079        0.59606761515700
C            0.23678884461298        3.02722815171252        0.39993652924910
C            0.45966737463674        1.65149208257483        0.19690503443368
C            1.77009638752265        1.16400431428956        0.26533911734634
C            2.00631609965114       -0.16450031662921        0.01402795827055
C            3.20902158084173       -0.93462111188886       -0.02734643447051
N            4.46593691485524       -0.44913503664949        0.11720037123317
C            2.85225632100079       -2.26449636473050       -0.28723637278246
C            1.47094470794137       -2.35512252435058       -0.39035914701368
C            0.90828128155446       -1.07733472941191       -0.21116772153429
C           -0.41999176834869       -0.63390490914037       -0.18394283462615
C           -1.47878898016899       -1.53019239970952       -0.00605513221120
C           -2.84667973200090       -1.24997597389800        0.14499967199981
N           -3.64205592598001       -2.21251271920765        0.66762810435283
N           -3.51784735441103       -0.16691353835681       -0.26081613255527
C           -2.94820925731254        0.93463180951240       -0.68765375220674
N           -1.75737165872751        1.42516743426130       -0.48163405590381
C           -0.63254868994221        0.81767949387853       -0.13444869293877
H            2.57085324639744        1.86125849563057        0.47511954876888
H            4.59309020701418        0.48921038154449        0.45218398032817
H            5.22602962994174       -1.09504553277510        0.23714004694969
H            3.54521498934773       -3.07965287751448       -0.38889499095699
H            0.92994729719713       -3.25938785969733       -0.60317155481482
H           -1.19299439188074       -2.56038474156840        0.16863579325776
H           -4.63072932101023       -2.04063639257013        0.69528051374882
H           -3.28583564721214       -3.12167777716149        0.89699063853693
H           -3.62261891313151        1.61207424264508       -1.20592245931817
