33
 energy: -63.684036411840 gnorm: 0.000330962366 xtb: 6.6.1 (8d0f1dd)
N            5.45548283526722       -1.73000289477574        0.96299969909078
C            4.46825066424235       -1.22009118578004        0.66796770406803
C            3.24499830095261       -0.61964897636830        0.30799070325417
C            3.19440295763012        0.76531637780589        0.40230292243560
C            2.16970061342324        1.63828730065127        0.07737622355359
C            2.50734736909913        3.01329403850444        0.14358039766200
N            2.84316617142275        4.10806075534198        0.20832902435700
C            0.79922179726758        1.37657134069757       -0.20975570057999
N            0.09702659960895        2.47689533932794       -0.46767419239872
C           -1.22074421979238        2.45397021150334       -0.53060774593403
C           -1.92689935260109        1.31837218704389       -0.20704482887407
C           -3.32124554225930        1.06296555060593       -0.04300058801767
N           -4.31338035868336        1.95073386682570       -0.18364715896259
C           -3.45988903384203       -0.29090283434356        0.31685158094494
C           -4.66440643190790       -0.93006301867175        0.61283129371638
N           -5.65904142246198       -1.45235104491050        0.85858285922551
C           -2.18234868553216       -0.90709613878627        0.35503353018483
N           -2.00335348631542       -2.14958049521054        0.82234982312886
C           -1.20366667709841        0.08195367372260       -0.00170687365080
C            0.18439520482214        0.06393964177986       -0.16309531461584
C            0.89616048796429       -1.15571900769316       -0.42728843128783
C            0.13319631560185       -2.15837736804985       -1.04523963888110
N           -0.46506314124806       -2.98926742845795       -1.57590778284315
C            2.24411294331332       -1.49071971341107       -0.21721016320591
N            2.63387883065535       -2.75750806158341       -0.48576521660935
H            4.11464995118529        1.23552294484492        0.73343470852761
H           -1.69009846878812        3.39043523160190       -0.80207889265665
H           -4.11512196988830        2.90333547969774       -0.43135412667081
H           -5.26702204116266        1.66886563767646       -0.03373364172273
H           -2.82177581427346       -2.71205449900552        0.99257179578430
H           -1.12095828233128       -2.62306048891113        0.74359401792983
H            1.99861856790539       -3.40970911349415       -0.91384833206394
H            3.60010956012424       -3.01730651387791       -0.37810477278881
