29
 energy: -50.408579522436 gnorm: 0.000602576486 xtb: 6.6.1 (8d0f1dd)
N            5.25416580779097        1.08907130891788       -0.01723909880581
C            4.14012866729712        0.79501924866492       -0.01865582167836
C            2.79208089267561        0.41416845444094       -0.01631872455152
C            1.84478497221504        1.43320411068767       -0.03229620716836
N            0.53545857866421        1.41359858016112       -0.03295519013126
C           -0.27005938044441        0.32891288023143       -0.01515915788704
C            0.10470325444507       -1.09180221500815        0.00991520154042
C           -0.89985711290945       -2.04466864280871        0.02535559276134
C           -2.27623227999283       -1.75872170604312        0.01886496357458
N           -3.18098878104484       -2.77031044776793        0.07699412342417
C           -2.65200337003454       -0.41729730738277       -0.00442920311961
C           -3.89884733585024        0.24999268759282       -0.01920144298295
C           -3.68692146169954        1.61642227126670       -0.04268979509159
C           -2.30056501403501        1.85867393899697       -0.04409112563052
N           -1.63407524805934        3.01501711368678       -0.06494040951970
C           -1.63380396690504        0.58659039751256       -0.02056990091443
N            1.35254400028043       -1.61129617721258        0.01832293977114
C            2.50374371429220       -1.00195547830723        0.00528377168197
N            3.57417850295407       -1.83022818873480        0.00412012880397
H            2.24959252152783        2.44489418193070       -0.04733306439176
H           -0.58496122781834       -3.07801385661491        0.04351472233037
H           -2.86799643998748       -3.71439668941305       -0.06354093633375
H           -4.15096134503195       -2.56778099110999       -0.08324859202557
H           -4.86550182194444       -0.22276459698257       -0.01056057718891
H           -4.44857662306241        2.37413964333410       -0.05732846134514
H           -0.62054445121868        2.91046517032573       -0.05906191163298
H           -2.10421563048476        3.90232575174287       -0.07788160354768
H            3.40465084281096       -2.81877902612291        0.05108978130451
H            4.51157671356979       -1.47031446768508        0.04026811305473
