33
 energy: -57.297067750875 gnorm: 0.000517217000 xtb: 6.6.1 (8d0f1dd)
N            5.24324384255826        1.27908973187137        0.18678512066245
C            4.21608572104912        0.75958779520255        0.13242464033167
C            3.01475470381247        0.07187417316662        0.04489243701020
C            2.88524583872226       -1.33439152417673       -0.10505068582445
N            3.91371008297397       -2.22644872655988       -0.11237917343174
N            1.61136846006584       -1.73158895731690       -0.18400674970590
C            0.84723970719500       -0.60485588995715       -0.09401552489218
C            1.69306045296813        0.55064010182849        0.05817691458639
N            1.20353125387286        1.77079432285539        0.24401672195490
C           -0.09913570344071        1.91988762671085        0.16285727937846
N           -0.51042674119052        3.25254456426311        0.36961659597638
C           -1.04214082438628        0.87966119310964       -0.09793268390446
C           -2.39949324061931        1.24412700292999       -0.42134318871531
N           -2.58364023474180        2.44727725493119       -1.01600023309208
C           -3.54736405020909        0.50696986994177       -0.18114606129359
C           -3.69057303447207       -0.82370943272130        0.21833024830696
N           -4.95937417581378       -1.24682708851937        0.49797386979029
C           -2.69065690992072       -1.79089191950462        0.21180514972186
C           -1.33860292233617       -1.68063005674196       -0.09956887640538
N           -0.66179120784891       -2.81797648765301       -0.29220120549026
C           -0.54359666899248       -0.46599365505208       -0.11901769116250
H            3.71266198756226       -3.14668162636377       -0.46557435790852
H            4.83021389031156       -1.85678023243552       -0.30342558916187
H            0.30323334794715        3.79745273069277        0.63198464814517
H           -1.24963704528547        3.34952900413475        1.05451200505582
H           -1.80786207654982        3.08954080540680       -1.07788369333458
H           -3.51621500636255        2.78465816767533       -1.17419333195988
H           -4.47907966402972        1.03780043894942       -0.34560218982583
H           -5.09173540261857       -2.15373992418978        0.90839010775865
H           -5.68169442042721       -0.56574895429259        0.64782174251186
H           -3.03175792040165       -2.80329910790538        0.40373809191123
H            0.37543927601097       -2.74424778812914       -0.31775599668888
H           -1.13032374120296       -3.69784235705104       -0.15713811660500
