32
 energy: -59.963168778096 gnorm: 0.000607535045 xtb: 6.6.1 (8d0f1dd)
N           -3.72362553730968        3.65488987309819        0.36671695449942
C           -3.14389907343690        2.67095360985733        0.25342682659766
C           -2.44376262918573        1.44769834270823        0.11307285991895
C           -1.09246391302536        1.57050207223970       -0.14862497815123
C           -0.05567653057484        0.62688573670356       -0.16904996971718
C           -0.21647189605269       -0.80303263889414       -0.09803499187940
C            0.90691035642029       -1.60077918077258        0.13479764138834
C            2.20505179708250       -1.08904734009772        0.21364401765240
C            3.25940071303035       -1.98589868385723        0.50365079977011
N            4.06624842403761       -2.76379716267919        0.74308494964326
C            2.41559294864395        0.26134630082224       -0.01896620562087
C            3.57843664807924        1.05984062854415       -0.08129492918989
C            4.89923831219089        0.62436137422008        0.04584100730557
N            5.99385419505619        0.28716661799785        0.14020960374873
C            3.16101159906564        2.37850949882326       -0.30876079261812
C            1.76931551146453        2.42724995299766       -0.37877199610904
C            1.26497862514435        1.13553330150985       -0.21482627354859
C           -1.46117098032681       -1.48881979955348       -0.34222255435773
N           -1.36820436835246       -2.74518530562911       -0.82013483765018
C           -2.76698328824731       -1.02342125634296       -0.08257144565241
C           -3.78604420028579       -1.99992872447416       -0.16968196207111
N           -4.62185185740255       -2.78597199255797       -0.24013958972026
C           -3.22655991320232        0.26987828882175        0.24815618321216
N           -4.51100669993695        0.41425673496173        0.63053134194359
H           -0.76002467804594        2.59609631744109       -0.24736330765566
H            0.79015756313657       -2.65884304257347        0.32172458013045
H            3.82217554127135        3.21927206454953       -0.41617970656549
H            1.20903268673036        3.32744756183692       -0.55128805881325
H           -0.47918512933974       -3.13239750619547       -1.08212198627656
H           -2.19757792023939       -3.29567100915096       -0.97243291432965
H           -5.12875685110943       -0.37959992535271        0.66594085604560
H           -4.89100903997745        1.33434285779727        0.78115522036991
