31
 energy: -59.466038051063 gnorm: 0.000959051943 xtb: 6.6.1 (8d0f1dd)
N            4.93550776888619       -2.35645433936438       -0.18202572447860
C            3.99769269038517       -1.69605068353795       -0.12715776620976
C            2.83726109851314       -0.89032097806122       -0.06579877191838
C            3.06536691117709        0.43887654431938        0.27981831599048
C            2.20050925242728        1.51039512710596        0.20797067221354
C            2.77571227492092        2.76799390492742        0.50662001541341
N            3.23550653071732        3.79120842311941        0.75166231638643
C            0.81836746029915        1.53094436798139       -0.16345816061736
N            0.28251261999057        2.71745754421819       -0.42174123026524
C           -0.06247464417699        0.39819338033137       -0.17088627163183
C            0.29531109339385       -0.99781686684400       -0.10476284922244
C           -0.70821744432724       -1.94961724387602        0.13315974892719
C           -2.06112642407783       -1.65241684900292        0.25182945828522
C           -2.98594316143553       -2.67335780532131        0.54976113671986
N           -3.70991251937681       -3.53131632513961        0.78524518125739
C           -2.45781138251500       -0.33212913495375        0.04149574681247
N           -3.66005201743273        0.24668490652370        0.02709289471769
C           -3.38877966042664        1.54170407998303       -0.19967699001654
N           -4.35591945561028        2.47143223058516       -0.25466689861049
N           -2.08114845819485        1.85453901789421       -0.33585059687086
C           -1.43955967770219        0.67538501666547       -0.18638963922775
C            1.60966866825500       -1.52908145205031       -0.35085010659612
N            1.69521471391879       -2.77847192688593       -0.84206783850195
H            4.08568998050938        0.67591518023230        0.56147514782864
H           -0.75672005191682        2.75089162108936       -0.50079917855978
H            0.83617320764411        3.55277580025645       -0.30667353219813
H           -0.42805386588180       -2.97908344093648        0.30751518450921
H           -5.30577259963198        2.14839323519058       -0.29291682636817
H           -4.13028275020056        3.39173235218135       -0.58527999704229
H            2.59790662060726       -3.21231218169431       -0.95333424239208
H            0.87334939006180       -3.29775087803535       -1.09444655623482
