28
 energy: -52.268036853183 gnorm: 0.000937921849 xtb: 6.6.1 (8d0f1dd)
N            2.43748734241837        3.03507005638689        1.45910665477543
C            1.61697751782669        2.41248583429347        0.95222351570616
C            0.49695465288253        1.71705094789519        0.44827005875315
C           -0.66667133761405        2.45584446664284        0.25529307063695
C           -1.80990925859705        1.81324391422498       -0.18076091908823
C           -3.09258475355654        2.28195795178538       -0.50348436216860
C           -3.89367917142634        1.17684937673919       -0.80543410347208
C           -3.15767344961431        0.01323369125983       -0.65148552826265
C           -1.83995673147793        0.36709218099427       -0.25783181353981
C           -0.72438377108237       -0.39867429639442        0.06723207230225
C           -0.85295744118107       -1.76702223516366        0.43505948829974
C           -2.13277626811708       -2.26632560711990        0.77176065527144
N           -3.12110013420370       -2.74574285213272        1.10424616851116
C            0.16533381950258       -2.69758541413071        0.64969425375222
N            1.40521479846116       -2.68064073449986        0.23579547217540
C            2.09021744536614       -1.66460339506913       -0.25242429360130
N            3.21880903512593       -2.00543106198526       -0.89798641970550
C            1.79980355610496       -0.27125214756355       -0.04496743042236
C            2.92070004257752        0.55729045787737       -0.27919968557751
N            3.89017895401197        1.09245715885790       -0.58839269110391
C            0.55177137629510        0.31581561825956        0.19985513724978
H           -0.64965070990179        3.52337589755477        0.42140734740489
H           -3.39846346465017        3.31158060977222       -0.51216695681816
H           -4.92172300799818        1.22207602659451       -1.11408093265579
H           -3.51595729865237       -0.97963573309603       -0.84408405484653
H           -0.11468005283842       -3.62962124385777        1.13145287490597
H            3.88818129754024       -1.31116358180864       -1.18463517971710
H            3.45880221089692       -2.98131484801682       -0.93676856746581
