29
 energy: -50.415877948652 gnorm: 0.000712067085 xtb: 6.6.1 (8d0f1dd)
N           -4.82750287479894        1.25044571742101       -0.17705724805680
C           -3.78623469494819        0.76282257149347       -0.11185955341702
C           -2.56725236290617        0.10172539927077       -0.05123745537986
C           -2.41022593912402       -1.31939455276204       -0.04751852953230
N           -3.42758263366831       -2.21376841814826       -0.03561128684867
N           -1.13426416280657       -1.69429584112276        0.00431760482972
C           -0.38963791788476       -0.54378215491265        0.02654762688707
C           -1.26295164250146        0.60540358046360        0.00409712571900
N           -0.81521224373956        1.85661697808758        0.10194429321075
C            0.48330780748386        2.03181610303121        0.13635664225804
N            0.87184472584518        3.35087007155985        0.23815980740847
C            1.47299386764449        0.98028315527870        0.01732155188261
C            2.78637928450464        1.39726996175352       -0.19852489557212
C            3.97388959080828        0.69282120451924       -0.27473971661413
C            4.16839464511782       -0.66996138368188       -0.09964758619257
C            3.22415635346190       -1.65242819176095        0.08558205552131
C            1.81888721159726       -1.57401521402984        0.09424525694269
N            1.15894235691269       -2.72697179228406        0.17795131372703
C            0.99152231765147       -0.38695097120638        0.04384774207053
H           -4.34522078672615       -1.88057835793432       -0.27711992766810
H           -3.21052401391623       -3.17524555785727       -0.23235468745847
H            0.07676585855965        3.95853361248138        0.37548607789247
H            1.66178242402196        3.56814411246415        0.82333145078511
H            2.89738669450595        2.46322279780500       -0.35062605682693
H            4.86201403907221        1.28029492590915       -0.46631120264806
H            5.19718736056284       -1.00813877116353       -0.12702839604978
H            3.60784756126089       -2.66168607955888        0.19064419953895
H            0.11820155161756       -2.68143614731626        0.14380232146576
H            1.66689977779099       -3.59459193289951        0.22060906482484
