32
 energy: -58.380149961701 gnorm: 0.000642892658 xtb: 6.6.1 (8d0f1dd)
N            5.00024268635095       -1.46687413210864       -0.00783795932898
C            3.91581633658730       -1.07390615994354        0.00037982727219
C            2.59184715941895       -0.61345341732227        0.00256044008902
C            1.58559233905357       -1.61952610266871       -0.03986172695781
N            2.02195991643288       -2.90540865275167       -0.09058499073055
N            0.27718593761453       -1.51630935184418       -0.01292487147927
C           -0.51534282369368       -0.43461555832286        0.00810742323366
C           -0.16098635258543        0.98256579823742       -0.01978374015266
C           -1.18975396849321        1.92370865932761       -0.05511422004598
C           -2.55844039877530        1.63148104655043       -0.03747087515805
N           -3.47352167997653        2.62388018984663       -0.07697451947714
C           -2.91591044094971        0.27865952743222        0.02660858143578
C           -4.11467885401494       -0.45224399111384        0.07159835768420
N           -3.91054254169639       -1.77235675324642        0.11804857247789
C           -2.57820454654215       -1.95334387509093        0.10118041680874
N           -1.97022202007224       -3.13807872878725        0.13430117546381
C           -1.87848516313853       -0.70152487544171        0.04518673439602
C            1.17706123477316        1.47966664893996        0.00814520133932
C            1.31879221285356        2.88094162588101        0.02527185644578
N            1.49258350533548        4.02017176546278        0.04064299078127
C            2.40857656178971        0.78794741971875        0.03692211228689
N            3.53843243577460        1.53450639009482        0.09288739579521
H            1.34822242718879       -3.64417566248565       -0.17649347663348
H            3.00175871230894       -3.11585945131478       -0.15626253687553
H           -0.91702076383992        2.96954773035200       -0.09098596265289
H           -4.45305132651071        2.41091204006264       -0.05268307802318
H           -3.17940238446457        3.58292181401900       -0.11421231318379
H           -5.12195923061145       -0.07416781312306        0.07260636262838
H           -2.50000435546810       -3.98950231608656        0.18365409626074
H           -0.95826052190533       -3.08902650103482        0.11805343329249
H            4.43826696399951        1.08619555092474        0.09986205032632
H            3.48683088125537        2.53836888552869        0.10124865818445
