26
 energy: -48.032183475141 gnorm: 0.000574184429 xtb: 6.6.1 (8d0f1dd)
N           -5.07917137338777        1.93008021542241       -0.18856695493034
C           -4.12613063609336        1.29397436875871       -0.15408820058395
C           -2.95386265959347        0.50303295469574       -0.10263196676591
C           -3.07793625633407       -0.85138680745903       -0.46675813647521
N           -2.25722381863896       -1.80650220622512       -0.15518631810626
C           -1.02612149983251       -1.77352050861994        0.30358398592515
N           -0.61880463111839       -2.85353284758711        0.97622984143909
C           -0.05686561949269       -0.72605697574215        0.04280444876228
C           -0.44283098703602        0.66056057685845        0.15637801957370
C           -1.76028493770804        1.13879041003281        0.22372940359370
C            0.57832980874667        1.63979272716669        0.23114377875840
C            1.91688415512098        1.34512232092050        0.07683107191979
C            2.87861755227513        2.37931911327373        0.13409897522293
N            3.63236236728286        3.24050596866105        0.19122995803844
C            2.30303524564943        0.01151291496199       -0.15097270422133
N            3.51103829472687       -0.49952908023962       -0.30818320077940
C            3.33541137831487       -1.83222758581344       -0.46999742286165
C            2.01805571205141       -2.22643644605189       -0.36128934028974
C            1.27803937511974       -1.03554244252259       -0.15693034415239
H           -3.97939943838038       -1.17087996319574       -0.97799380509874
H           -1.26986267299809       -3.60000231050092        1.15364906988313
H            0.33327497896574       -2.92369452773618        1.29445811586863
H           -1.85218915040814        2.19949355304255        0.43215159522627
H            0.28649792009303        2.67004050675035        0.37491069502388
H            4.19139004894657       -2.45819620497348       -0.64610098481569
H            1.64129812852933       -3.22342540557782       -0.49063752995495
