31
 energy: -53.849660075562 gnorm: 0.000771726956 xtb: 6.6.1 (8d0f1dd)
N           -3.18481724376266       -3.25339959868142       -0.60128971910525
C           -2.44785510606610       -2.39189173563378       -0.40052741769971
C           -1.52719692160471       -1.35825549494847       -0.17142715398555
C           -0.15759641166302       -1.64745767610563       -0.08185558383813
N            0.23665026530411       -2.99643989583560       -0.16089556639405
C            0.80103947327715       -0.62794333305531        0.10456551625964
C            2.15921347568476       -0.95929970249328        0.42773342440314
N            2.40760837585322       -2.10072795495538        1.09751775289649
N            3.25897683502426       -0.30841307399782        0.08572010718568
C            3.44956897811491        0.94699540549186       -0.23956873100559
N            4.67022677093395        1.23098382778075       -0.74689592136688
C            2.55748570313153        2.02603687396514        0.00454180601241
C            1.21525072735076        1.89800144087566        0.19641463366646
C            0.37996718103341        0.75764746339010        0.13015003560121
C           -0.99168407753740        1.02281046756842        0.11567474632880
N           -1.59549328549987        2.22199197287358        0.18986895440461
C           -2.91480295255064        1.96694033621508        0.09915168588908
N           -3.81484868572977        2.99094252555083        0.09104463796115
C           -3.20928104153170        0.59499087746538       -0.04239422039787
C           -1.97855931284226       -0.03606071594290       -0.03601028789845
H           -0.53297976002045       -3.59711099531429       -0.43142412770512
H            1.04696795337572       -3.15596340912696       -0.74405897174120
H            1.65137584964072       -2.71841757411083        1.34226007131644
H            3.36029237703598       -2.32737665139951        1.32084615529394
H            4.90004606553339        2.16153893220236       -1.04095443664765
H            5.30044413913833        0.47558431523936       -0.94847167191346
H            2.98457492260458        3.01948234346265       -0.01921050550819
H            0.64357299030083        2.80853553485809        0.32795032814089
H           -4.76626935255130        2.77038632720259        0.33201958597272
H           -3.46401595258797        3.87874880711331        0.40989888130470
H           -4.18238882438944        0.15429304954552       -0.13736984343156
