30
 energy: -45.301999761613 gnorm: 0.000732510502 xtb: 6.6.1 (8d0f1dd)
N           -4.22475337384710       -1.54913317065627       -0.23329828372000
C           -2.94173227532091       -1.07753320048703       -0.10789924189572
C           -1.90532923767709       -2.01938260247203       -0.18490900657228
C           -0.56143746532702       -1.81386390376105       -0.02027570266030
C            0.22262061764410       -0.64624926528345        0.05591430746346
C           -0.27561853214470        0.71138071742017        0.01547999694661
C           -1.63355154273745        1.04041333107259        0.36505184310708
N           -1.83563561075264        2.25898234527550        0.93288167193811
C           -2.77983181494991        0.26253537141495        0.22324332649968
C            0.64108733476572        1.75275130881557       -0.26368963161622
N            0.17887719253669        3.08127922993053       -0.51235268958654
C            2.01162174408937        1.53813694430144       -0.30221728186313
C            2.53307741919931        0.28577824619991       -0.05512756795943
C            3.84247139909305       -0.20932220554144        0.00468419359098
C            3.75994086934087       -1.58086347646310        0.19356042037152
C            2.41853237833764       -1.97456119228403        0.24475821227963
C            1.61993870878766       -0.83708824089119        0.10442176378884
H           -4.96954925589729       -0.88814597455383       -0.37086759457938
H           -4.35540033956168       -2.46028795762667       -0.63681574231266
H           -2.22204408522693       -3.04266067496506       -0.35026733566323
H            0.03040291197799       -2.71907460564771       -0.03769387749241
H           -2.77582803624421        2.58155451005413        1.08107574863345
H           -1.08875987701442        2.93819859010695        0.88628455799134
H           -3.70695089550704        0.79246228603893        0.42299873545332
H           -0.53947383698448        3.10718845917694       -1.22753703054928
H            0.95163222461634        3.67542173234945       -0.78850872454341
H            2.66945158427834        2.37195443223327       -0.51757134190120
H            4.74214200960742        0.37273468416743       -0.08168876099038
H            4.59935327585364       -2.24862924983270        0.29136378045490
H            2.09045958306462       -2.98798108709230        0.39439047678664
