34
 energy: -63.402371151303 gnorm: 0.000726155836 xtb: 6.6.1 (8d0f1dd)
N           -5.89448014242375        0.45295298862710        1.12333038529330
C           -4.79851056895419        0.25452980373277        0.83857298635723
C           -3.48062079791952       -0.04897217969744        0.48799432225055
C           -2.39296460196375        0.82574470523382        0.45454457401844
C           -1.24138089847879        0.10590482034606        0.08108162409552
C           -1.64165843747802       -1.26912357033125       -0.10639620245494
C           -0.71352767829789       -2.20828874406310       -0.49819371442450
C            0.63101206258704       -1.84720207334635       -0.51542817962398
C            1.53608519806198       -2.81438562947508       -0.99881186639179
N            2.17730083092010       -3.61930336179134       -1.50980246070906
C            1.08081474665076       -0.54173119882237       -0.15854745238140
C            2.42827588602575       -0.40294891669054        0.22309118416373
C            3.09878918463077       -1.58796731773222        0.60067558236968
N            3.70009957590018       -2.46486576067062        1.04089884308741
C            3.21090202747601        0.77437210681433        0.41022320213669
N            4.46150171160158        0.61127874416781        0.90349632609662
C            2.84039919892933        2.06711616073854        0.06266726787156
C            1.61315448407286        2.57055792964200       -0.36935396156394
N            1.60226315139268        3.87249646217947       -0.74565635790212
C            0.37138304896967        1.88231827805955       -0.36696646852237
C           -0.71076801808392        2.68299862405900       -0.78674338618285
N           -1.50312297451331        3.40602139551752       -1.20503184453318
C            0.08982897972722        0.51816783907404       -0.11290934123112
C           -3.04002501808575       -1.35155929941667        0.12241879372408
N           -3.81555867201093       -2.44481196257535        0.03764274738320
H           -2.44747174721582        1.86241790902771        0.72619674135544
H           -0.98909917381598       -3.21950325050704       -0.76289221735113
H            4.81294121671203       -0.30587770824872        1.11902445308494
H            5.07145561943414        1.40153214828017        1.00583453049147
H            3.63241842433073        2.80383698202103        0.13608098211038
H            2.45636021475971        4.39909762053776       -0.76924688425697
H            0.75415441583288        4.30759629549026       -1.06550365673320
H           -4.79975136201677       -2.37664644731055        0.23144424499230
H           -3.42593556554595       -3.33333814276369       -0.22108924001269
