35
 energy: -62.328728820008 gnorm: 0.000594074450 xtb: 6.6.1 (8d0f1dd)
N            5.32342072194761        1.14965811377512        0.81649979576245
C            4.27233688686386        0.74364685770201        0.57976461193501
C            3.00655384041601        0.23389388475658        0.30212896759690
C            2.72521970616966       -1.11492078284279       -0.01816385971221
N            3.66267081582437       -2.09489669378642       -0.15207155774641
C            1.32825470499678       -1.23800178192565       -0.16456317938476
C            0.52204285676151       -2.33625698643608       -0.46687810716982
N            1.04497833951005       -3.55875713549889       -0.80140921900708
C           -0.85617263762964       -2.17605503041316       -0.31455411300838
C           -1.46498002813094       -0.96016366619479       -0.01699110480502
C           -2.85680582476245       -0.98137799815594        0.30968801619643
C           -3.47289506261288       -2.24830722492296        0.38832824595484
N           -4.02385368868243       -3.25646607869015        0.44468359049236
C           -3.70684662327474        0.05841751332811        0.68020431552732
C           -3.53054696078459        1.42023898627589        0.60248382593755
C           -2.44125168638732        2.10790371099032        0.04836431687067
N           -2.59844571458216        3.45270501313144       -0.12727148797400
C           -1.18850004250716        1.55128435485549       -0.27847306600912
C           -0.34601513157996        2.39694953409947       -1.01455730571436
N            0.28847056585623        3.11341719285393       -1.65912486038409
C           -0.65700641300021        0.24179042819553       -0.02493906603734
C            0.72435497852398        0.05769392541478        0.05059624083879
C            1.79841564723792        0.96105280645825        0.36058943246183
N            1.74350937992835        2.22042081234225        0.83473325372401
H            4.59509723599547       -1.84808871482257        0.14570435576185
H            3.37777688003746       -3.03614640591413        0.06777913245777
H            0.37665295456751       -4.24473453891942       -1.11776300289869
H            1.91590980933315       -3.55595297067320       -1.30728651151665
H           -1.48233700496200       -3.04893332058227       -0.43272289352794
H           -4.67703005128235       -0.26466737519221        1.04208518998093
H           -4.36507931990892        2.03740488022558        0.90880620466313
H           -3.52624679789990        3.83659070686972       -0.07777119432680
H           -1.92375265236808        3.95677288538548       -0.67921506805822
H            2.61344472853068        2.71269333106393        0.95370304825784
H            0.90370263625589        2.76645705344725        0.77440541406123
