24
 energy: -43.806446361725 gnorm: 0.000524209254 xtb: 6.6.1 (8d0f1dd)
N            4.20092202724839        1.90458660684431       -0.00080239713589
C            3.36685399245057        1.11612312297456       -0.00035746002002
C            2.33225922138412        0.14914532457648       -0.00069818826136
C            2.76464680659691       -1.16716665416168        0.00130859455949
N            2.09815705999497       -2.30800551336335       -0.00027820198655
C            0.80073201884118       -2.45922360364134       -0.00154593713608
C           -0.29099850021321       -1.56485045648528        0.00009474556358
C           -1.56655845026888       -2.18784268732460        0.00122411846304
C           -2.75689407168962       -1.50843617918029        0.00212856619364
C           -2.70929517315144       -0.11629078543260        0.00152196169127
N           -3.67447097943851        0.81274304255217        0.00168530394988
C           -3.01077235130415        1.96878410819575        0.00037994310042
N           -1.68017580331791        1.89087204198016       -0.00072573071821
C           -1.42687184561537        0.55509799492681        0.00001436560832
C           -0.20765498898281       -0.12528479035373       -0.00041323855149
C            0.99550849004370        0.66520232206986       -0.00196338331436
N            0.84063940164386        1.97788740651364       -0.00370445443639
H            3.84221545185676       -1.31324121388645        0.00381021332373
H            0.52421607549039       -3.51167265752138       -0.00372212140825
H           -1.58492011670691       -3.26807695763532        0.00146736546924
H           -3.70334566492943       -2.02552278846735        0.00304114950747
H           -3.51847201954862        2.91565604119161        0.00016409110121
H            1.64378489782658        2.58806446117955       -0.00434124244146
H           -0.14699158401054        2.33671084454849       -0.00323155242122
