27
 energy: -46.165891286923 gnorm: 0.000635333948 xtb: 6.6.1 (8d0f1dd)
N            3.97516118042346        1.56459673864074       -0.64564773905058
C            2.92343342193340        0.83219410678347       -0.20704611203290
C            1.76056587978897        1.54626452856565        0.16870017517800
C            0.47307521989223        1.06437522906561        0.34184896022409
N           -0.45476199201784        2.00695812426875        0.61085329891948
C           -1.73436938028947        1.72582970120150        0.51007022129172
C           -2.19887759422694        0.49164217057066        0.08700525851498
C           -3.48570031617122       -0.06016238429620       -0.12090654754992
N           -4.66817265177806        0.61684384440084       -0.08783938554666
C           -3.32212023222241       -1.42752376213883       -0.42595227617107
C           -1.97874343853619       -1.74383735533901       -0.40451252830743
C           -1.24456757651295       -0.57554806450275       -0.09404193733142
C            0.11121022210679       -0.34568406628629        0.11909377267484
N            0.94763116331356       -1.38164875115216        0.16783411001263
C            2.25720296336476       -1.38240840699505        0.23170508246954
N            2.80844542390769       -2.55457491775348        0.63495201497352
N            3.16135176534149       -0.46265678745724       -0.13445424773621
H            4.82337695641371        1.08595720531089       -0.88804272092410
H            3.92760446902847        2.56481018377647       -0.69459856483770
H            1.85023501240745        2.62443448794816        0.21570682739910
H           -2.40529648030968        2.54017397795820        0.76665949009142
H           -5.51357757121801        0.07656371562517       -0.01017090864773
H           -4.67585283195327        1.52186901740540        0.35155200005340
H           -4.13006822782966       -2.10503366501035       -0.63875317777205
H           -1.54732683448394       -2.70954368193762       -0.58864172937378
H            3.79240263272636       -2.69055511097233        0.48944609174591
H            2.20147378100118       -3.34974566018040        0.72565384223302
