29
 energy: -51.196461319187 gnorm: 0.000807483065 xtb: 6.6.1 (8d0f1dd)
N            5.65994930369007       -0.19734107914899       -0.01128219430539
C            4.51931711598781       -0.33839354161932       -0.01704017778773
C            3.11555489885839       -0.50490539171829       -0.02300169757632
C            2.69142537861021       -1.80940690268639       -0.23391192016901
C            1.40143522090164       -2.31439876526455       -0.17431200679129
C            0.22507487609931       -1.61521769215905       -0.00991195982239
C           -0.03459245809145       -0.23570361423701        0.00192579677748
C            0.94963905154298        0.84098106994882       -0.00623736461024
C            0.46516564669392        2.15433143262512       -0.18070899764882
N           -0.79201232403471        2.52977548709087       -0.25036363376868
C           -1.71710536982856        1.59241984297283       -0.11353430500861
C           -3.10573645673747        1.73129971351512       -0.09870007235682
C           -3.65880204805519        0.45846599407256        0.01083458404780
N           -4.97359438446235        0.13806726211780        0.02194079685965
C           -2.60347644673589       -0.51382715147474        0.06594056912181
C           -2.86114370164383       -1.87337298736884        0.18610168884372
N           -3.14605253201949       -2.98623225566119        0.29680592906770
C           -1.37947493803979        0.17372878810231        0.00301439282743
C            2.34796195200856        0.67841887390065        0.20206509842295
N            3.05839169037594        1.74809764981946        0.61240304608814
H            3.48478302289765       -2.52735739772833       -0.40660619458054
H            1.30842072669083       -3.38784591328286       -0.26780950339824
H           -0.66491103845881       -2.22906873137693        0.04444285800245
H            1.15998676425731        2.97088164989387       -0.33850083591269
H           -3.64659364977377        2.65437836585706       -0.16646073062270
H           -5.65644053548083        0.86595435763304        0.13097490013145
H           -5.24459808807500       -0.80766482197768        0.22948208798861
H            4.06022747432105        1.68544024137577        0.69534789295128
H            2.60755015949950        2.61985713848070        0.82326067572796
