30
 energy: -54.924946982866 gnorm: 0.000677012263 xtb: 6.6.1 (8d0f1dd)
N           -5.66028115711559        0.23483890693739        0.06475080967331
C           -4.51414831439433        0.12812403424894        0.09398401412196
C           -3.11493920815031        0.02804041000245        0.11216493354425
C           -2.56305005441431       -1.16664299268560        0.59045739971139
N           -1.35686055452369       -1.63157214886890        0.48574407619382
C           -0.21521665757406       -1.05301701416945        0.12155040890364
C            0.85998708850862       -1.93586080030073       -0.13828724216753
C            0.59467901286921       -3.31462253676488       -0.25712418657747
N            0.43534951259626       -4.44524462905076       -0.37623177313283
C            2.18641148333308       -1.49862034882628       -0.24098716234384
C            2.44270139027262       -0.16645298947819       -0.04528795762228
C            3.63649163421347        0.62680365944023       -0.00249751563585
N            4.89287004198771        0.19310012766103       -0.17661577721030
N            3.36257813247678        1.91381178767987        0.23176556793718
C            2.02157459522096        2.02432865747761        0.32487884632680
N            1.46455500626192        3.23164616880586        0.57678642941804
C            1.36694363613612        0.77421805248918        0.14137084699975
C            0.02517678967128        0.38282738682245        0.08225597115942
C           -0.98711866493792        1.32574592577506       -0.17303142529747
C           -2.36483305784554        1.17791495488449       -0.28321769624695
N           -3.07936253616334        2.25374215597814       -0.69937134806170
H           -3.25407004927302       -1.86457909372528        1.05704229203905
H            2.96902025959137       -2.22091837655602       -0.42560387781494
H            5.08828635644719       -0.78844165110148       -0.24713736363278
H            5.64657345025997        0.84788834897418       -0.06710142817305
H            0.56016483427068        3.25053795126222        1.01998412190523
H            2.11818573345471        3.95053737421011        0.84607985571499
H           -0.62210726942875        2.30678421545915       -0.45429691691085
H           -4.07529031556821        2.17989888490415       -0.81583383607088
H           -2.61304028608525        3.08660680791679       -1.00982350395019
