30
 energy: -55.719461218637 gnorm: 0.000917482298 xtb: 6.6.1 (8d0f1dd)
N           -5.88244095863207       -0.41463495176962       -0.52594240423135
C           -4.76993686882017       -0.14618219703206       -0.41311303073283
C           -3.40561062893870        0.16990188551102       -0.27465341488218
C           -3.03104242035727        1.47664009073757       -0.61279066708611
N           -1.93840531059801        2.12162901241247       -0.34815999484829
C           -0.73303115477511        1.69826747921373        0.01741585684528
C            0.16801612216874        2.71089368339105        0.38346692100426
C            1.52746340046720        2.49691896043509        0.45759171237390
C            2.02556361499150        1.24607136018398        0.12934822529261
C            3.34925853869697        0.75944434867592        0.00001220069350
N            4.49385216596306        1.43343510364430        0.19566034992721
C            3.26062652927491       -0.61123910532939       -0.39298279388028
C            4.37604889670942       -1.40801466589171       -0.66526042478529
N            5.32701309618270       -2.01569071587392       -0.88232241916703
C            1.92078373006049       -0.97516417320950       -0.46827342633691
C            1.12618620472179        0.14881600384060       -0.13974951710235
C           -0.25989738958601        0.31468898723412       -0.04875597827848
C           -1.12237011878458       -0.79398266750366        0.16964054691367
C           -0.50870112757305       -1.99685247031016        0.58081379766266
N           -0.10964661848818       -3.00551015567286        0.96462524191862
C           -2.53812156357359       -0.86328287619495        0.17367798667488
N           -3.12049334889270       -2.01951967636231        0.55374169088310
H           -3.79540386955548        2.08790344480403       -1.08532137118080
H           -0.24517326041773        3.69543257220013        0.53439406501063
H            2.18897548071757        3.31469641294462        0.70732190010241
H            4.48303412977271        2.40337912167862        0.45398489049426
H            5.37542635798305        0.96835120212909        0.06211712546155
H            1.57145740999687       -1.94022330312548       -0.78168155317213
H           -4.12182700396571       -2.11168861798004        0.51165643954012
H           -2.56335464084791       -2.81470476817696        0.81808116538084
