29
 energy: -50.406518055918 gnorm: 0.000463166140 xtb: 6.6.1 (8d0f1dd)
N           -3.55751171579848        3.10600915898269        0.33541324216600
C           -2.97444228683619        2.12090441338115        0.22351871105444
C           -2.29648693771444        0.89170830386094        0.09178094843605
C           -0.91051571604029        0.96047292457032        0.08160880642070
C            0.08021871397152       -0.01433122123589        0.02025852483466
C           -0.10948737154720       -1.46765615245659        0.00980032627676
C           -1.35319084525092       -2.07095318328771       -0.15610806264583
C           -2.64175639664702       -1.56941273891258       -0.21752130429058
C           -3.11521439860027       -0.26416038489993       -0.06900212701525
N           -4.45290822600753       -0.07458446743016       -0.09533854242485
C            1.04059349882100       -2.31102597780836        0.10087005627276
N            0.88962327660292       -3.69067878351950        0.17985182371280
C            2.33457023783342       -1.80823475525750        0.04805345871671
C            2.53863781284717       -0.44309473694007       -0.04105476833814
N            3.65735012121654        0.28880893501616       -0.08955937538643
C            3.19700912163950        1.55738381977326       -0.09774583987030
N            4.03379759516439        2.61238755944944       -0.09938746439414
N            1.85822135312779        1.71699702672650       -0.05814862394157
C            1.39696363652691        0.45778818958701       -0.02503591397110
H           -0.49935685358907        1.96386218012986        0.13501107072696
H           -1.31627989109984       -3.14468941635617       -0.29327284923132
H           -3.41798821067408       -2.30852577084905       -0.38151587198759
H           -4.83633798642271        0.85179482405613       -0.01091943279365
H           -5.07508765355278       -0.84975827243943       -0.23856493516239
H            0.13532027702556       -4.03468302323107        0.75196051536476
H            1.75630112993851       -4.18002213254848        0.34549619185922
H            3.17852053861975       -2.48166540239999        0.09210500659612
H            4.99809070444282        2.43737135563691       -0.31835482593648
H            3.64090074160543        3.51667359240052       -0.28997140294769
