31
 energy: -54.639929725146 gnorm: 0.000644337691 xtb: 6.6.1 (8d0f1dd)
N            3.58119549535830        2.94905942674952       -0.24743540282947
C            3.07698975045469        1.91777749638531       -0.20819048292642
C            2.52791421602378        0.61452677916485       -0.16394883957753
C            3.41094450650912       -0.40917564346336       -0.48456244935421
C            3.22130044288218       -1.77631448733977       -0.39844677788340
C            2.07829152657484       -2.42464488383204        0.05136600958630
C            0.80920345832496       -1.91547249736464        0.27359234322943
C           -0.06912181038789       -2.82584054218884        0.88372986506718
N           -0.75738419706529       -3.58854776986055        1.40648744553406
C            0.28233459965079       -0.59362757020159        0.02918758446496
C            1.12512621373648        0.58834755362093        0.10722115838232
N            0.62619356593433        1.78030871552707        0.38752375022685
C           -0.69018391996737        2.00075779272899        0.42856871467546
N           -1.06597873829759        3.26146203951563        0.79208972316502
C           -1.57284074306128        1.01249635950017        0.01426134734139
C           -2.96319345718335        1.00346615809889       -0.25186175080973
N           -3.79731208796197        2.08104680103448       -0.17706040132593
C           -3.32876681344031       -0.30354022592013       -0.58458682125532
C           -2.21282970355768       -1.13685853644660       -0.53368931410920
N           -2.22735966079566       -2.41673570754512       -0.97761811989567
C           -1.06955202257933       -0.33674341323256       -0.15270265139620
H            4.39993018616993       -0.08010552270902       -0.78360056214398
H            4.07275402881432       -2.40243029690043       -0.62653072898446
H            2.18433607038281       -3.48567257892032        0.25333326789902
H           -0.30800326439264        3.82277086127430        1.15061909598839
H           -1.95677165224903        3.37195032924879        1.24734123771350
H           -4.71003796209237        1.96097363376646       -0.58788820092263
H           -3.37898464495555        2.98543746342743       -0.32860631793471
H           -4.31746281093633       -0.61898940945886       -0.86379299108481
H           -3.13741640884375       -2.82817796597217       -1.10876850378750
H           -1.50275330724962       -3.05605629388702       -0.69817528935305
