29
 energy: -55.212843628414 gnorm: 0.000554723231 xtb: 6.6.1 (8d0f1dd)
N            3.10752887352374       -3.53304535750665        0.46365567990868
C            2.34691240320491       -2.68593515291732        0.31067291346856
C            1.35802929671116       -1.69916573113826        0.13866699537400
C            0.00533399863001       -2.08537539863587        0.01192714194514
N           -0.27928478512727       -3.42287534638659        0.01845193778831
C           -1.02183450817075       -1.12063692628430       -0.13480198625689
C           -2.30435103510595       -1.56206845993195       -0.51720575068987
N           -3.47213512848644       -0.99627126179868       -0.41061030866730
C           -3.69308069219176        0.25004459206062        0.03005569201882
N           -4.88825075101819        0.46386298338476        0.59495008744195
N           -2.93898270866766        1.32489195069635       -0.16910094859452
C           -1.63842200663181        1.32744510820778       -0.31213870307587
C           -0.69233986649863        0.30674273328604       -0.11244944266473
C            0.65992132597374        0.66077257744243       -0.03440253351512
C            1.35884663310304        1.87980204114638       -0.01923554193251
C            0.91169436384883        3.19073547365647       -0.08953955831710
N            0.60493678351924        4.30108415756930       -0.14186744027148
C            2.73935478329087        1.51672078342080        0.11242873317563
N            3.76993004454425        2.37077732992383        0.16437209982278
N            2.92091550371141        0.19046045117596        0.17826476437149
C            1.70170419071526       -0.35070434368748        0.09849683918238
H           -1.20130196754328       -3.74336370365892        0.24928707919872
H            0.48253504009472       -4.04839725912584        0.22583555634100
H           -2.37115232435354       -2.56123170224406       -0.94139553015739
H           -5.55282539036362       -0.28761705074050        0.64984555696220
H           -5.15309695089360        1.40370973652518        0.83296740047575
H           -1.24109462254962        2.31210026015262       -0.53928282950750
H            4.69861544597263        2.00196371258279        0.26061900467439
H            3.61453135316427        3.36162968641540        0.11648657460265
