31
 energy: -49.039111249399 gnorm: 0.000499089274 xtb: 6.6.1 (8d0f1dd)
N           -4.37176712118791       -1.61223855670539       -0.03296048965851
C           -3.18040764460947       -0.91791581140519       -0.04014250960267
C           -3.27475141334484        0.47500121543191       -0.04300756661928
C           -2.22349057834524        1.39329240795262        0.03310314884322
N           -2.58089793244055        2.72844920877157        0.02176316715907
N           -0.91776619390169        1.22225940776336        0.05554867178921
C           -0.19192119431235        0.08437579640866        0.03805896923105
C           -0.66647163459115       -1.29217517870255        0.06604597163110
C            0.28738877745976       -2.32511426723989        0.11730792710337
C            1.65426076108067       -2.12080631339688        0.10464075136406
C            2.12866608508112       -0.82661497529899        0.04006672746982
C            3.43102615364396       -0.25476538629389       -0.02389148196893
N            4.60224073974348       -0.96223972901887       -0.07984417022349
C            3.30409887544213        1.13393399584097       -0.10104167023718
C            1.94675531267679        1.46618521420837       -0.07122693882613
N            1.36573111734007        2.68536132504245       -0.07370948335722
C            1.18757979591937        0.25698962604864        0.01710642125568
C           -2.01683468993566       -1.67841110261201        0.02984409886122
H           -4.33661673144712       -2.58972896357226       -0.26910619037763
H           -5.19450817574160       -1.12220087215688       -0.34170254606558
H           -4.27323949813621        0.89335688217696       -0.08062152601194
H           -1.86055147952956        3.36900296004737        0.31349840836313
H           -3.51445134640036        2.96206698179657        0.31489287832798
H           -0.08217686390892       -3.34136771658172        0.15616711020612
H            2.32326467074803       -2.97114586279038        0.12997188617026
H            4.56920264663486       -1.91131381092509        0.25427611265339
H            5.44636431869381       -0.45817852834708        0.13814376994826
H            4.12012164790228        1.83107126931440       -0.16949281081700
H            1.87761373565737        3.48377576955453       -0.40816678666526
H            0.35431588486102        2.61992886194813       -0.17722406471950
H           -2.18022266255223       -2.75138226085946        0.04505834867342
