27
 energy: -47.756168687966 gnorm: 0.000653934707 xtb: 6.6.1 (8d0f1dd)
N           -4.55840014696310        2.02061444212191        0.00151577843165
C           -3.69711071538978        1.26153076168089        0.00126289522578
C           -2.65194899321047        0.30609090187694        0.00134347149427
C           -1.37030340005569        0.84270202786423        0.00151319468489
C           -0.10063038613325        0.26299848346626        0.00156777684475
C            0.17937736897310       -1.16358781884614        0.00146592294603
C           -0.80355236813744       -2.17804146759481        0.00131956807483
C           -2.17070275582201       -2.14822237163826        0.00118715791910
C           -3.05478582749054       -1.05177367235200        0.00116889344338
N           -4.37678576009944       -1.32109434333755        0.00098871243333
C            1.50770209256252       -1.60224530892354        0.00163818440171
C            2.60519920523438       -0.74162407521370        0.00191726481273
C            3.91068026639502       -1.28158740480500        0.00290404338886
N            4.95155166408344       -1.76195055689277        0.00093533426881
C            2.38185779402248        0.63179901971262        0.00190441007713
N            3.26650670332151        1.63588821020624        0.00215003086347
C            2.53932243657006        2.75511415048722        0.00213184963552
C            1.15914033995459        2.52308058762272        0.00192408126106
C            1.00769413934089        1.13522631759624        0.00176398306192
H           -1.35732550100319        1.92684394500014        0.00163328340408
H           -0.38476746178326       -3.17847453450871        0.00131674091300
H           -2.66345957305174       -3.11373164556854        0.00107669273218
H           -5.05142070440228       -0.57415694124304        0.00094874458845
H           -4.70381056884629       -2.27090302218888        0.00083573348694
H            1.70124622045043       -2.66588834974099        0.00166689602096
H            3.03085407208523        3.71167562029451        0.00228728293908
H            0.40122637069484        3.28270139182402        0.00193128004609
