30
 energy: -50.122392808597 gnorm: 0.000512196153 xtb: 6.6.1 (8d0f1dd)
N           -2.94339392804540        2.93228840506212        0.06753525706934
C           -2.51325272061211        1.86261561967225        0.04607790993170
C           -2.06937057203067        0.52871507749145        0.01042907140279
C           -3.13594816946822       -0.41610974398784        0.07257099076401
N           -4.38685237890917        0.05992383477374        0.29186872781038
N           -3.11766917297091       -1.73140385254369       -0.07054796629785
C           -2.04560317733424       -2.49312612395185       -0.19693586840847
C           -0.70014518774503       -2.21212293257986       -0.15548639686353
C           -0.01596793806836       -0.98179229218558       -0.05846247236642
C           -0.66267543115171        0.32634127455033       -0.05409626747302
C            0.13722900918353        1.46666499629681       -0.11814691393390
C            1.53088508201472        1.44968001616805       -0.11572821962999
N            2.23162259057307        2.62248192132007       -0.18913679473693
C            2.16828780169270        0.21110256105384        0.00975269735777
C            3.52019505744286       -0.16265088777436        0.12005262359362
N            4.61028280249809        0.67500443515194        0.18968753463719
C            3.57594083359430       -1.57591047660153        0.12680864087567
C            2.30005393689803       -2.07800842754618        0.05131068224782
C            1.37918229273581       -0.99268076475622       -0.00755291214185
H           -5.13996703222933       -0.60337178873112        0.24427685785666
H           -4.58140395033129        1.04555956149552        0.30570867657331
H           -2.31347467922795       -3.53822562627925       -0.33336635625685
H           -0.05792741826611       -3.07824126316050       -0.23117217635467
H           -0.34666375766765        2.43172951214051       -0.17580824685919
H            1.70026744147024        3.44174118658783       -0.44062560789920
H            3.15889294027247        2.57519318286299       -0.57841413896864
H            5.47190911971976        0.21483827705688        0.44534581396903
H            4.46397318139814        1.54702778109040        0.67619449895157
H            4.48231793868923       -2.15026198923747        0.19743433304981
H            2.05256529237506       -3.12307186823937        0.05697936459982
