30
 energy: -56.529989627677 gnorm: 0.000944296510 xtb: 6.6.1 (8d0f1dd)
N           -5.38479700469519        2.30924594654851        0.00251626857948
C           -4.46831164324355        1.61943909514446        0.00009230759786
C           -3.35042582161340        0.74621044858252        0.00115816052975
C           -2.11787391177686        1.37689508217795        0.00051176318792
C           -0.79833558749190        0.89918790311078        0.00026018254369
C            0.20073305020833        1.89495714055899       -0.00047741251316
C            1.55268682275140        1.60380451936829       -0.00088816471192
C            2.48776683712834        2.66650369766774       -0.00210680866931
N            3.20617855271537        3.55861961040868       -0.00140585489027
C            1.96071457534734        0.26459536898364       -0.00065798551989
C            3.23528173135837       -0.33262254673995       -0.00069253777414
C            4.47263142116811        0.32061400803411       -0.00000663680995
N            5.50286696798403        0.82784342769107       -0.00367082609429
C            3.05301405912474       -1.72435838045542       -0.00031289988625
C            1.68609373466292       -2.01475918153665        0.00046097995268
C            1.19399752439692       -3.32188482288636        0.00198709008387
N            0.82271706183140       -4.41173269559577        0.00030426443582
C            0.96381312012324       -0.78367316091608        0.00011244250594
C           -0.40879925062407       -0.49506087188959        0.00060887170302
C           -1.31375514082465       -1.58439825118246        0.00135860925678
C           -2.67687147238599       -1.66124432921784        0.00186891891403
C           -3.64949270805949       -0.64080672739970        0.00179978847386
N           -4.94226900569125       -1.01386431751460        0.00229954030940
H           -2.19177833033269        2.46010435294873        0.00002565452546
H           -0.10139171104015        2.93221153727864       -0.00076589774761
H            3.84182881451972       -2.45437084264399       -0.00004721058657
H           -0.82201813237554       -2.54833375915999        0.00154033733092
H           -3.08655659646565       -2.66458181761992        0.00233920435990
H           -5.67736202486743       -0.32559569689182        0.00225779567305
H           -5.19049179783261       -1.98794343475412        0.00276054083989
