28
 energy: -51.490426279216 gnorm: 0.000710158352 xtb: 6.6.1 (8d0f1dd)
N            4.85201613878208        0.93165952122760        0.00252369820672
C            3.71088672787496        1.06526779599850       -0.00378168633829
C            2.33024942740684        1.26466379581634       -0.01220274397258
C            1.66759259337921        2.51134359477275       -0.06296392498217
N            0.34977951497365        2.39147849731913       -0.07458091529822
C            0.07603793344451        1.05351529247035       -0.02205777537966
C            1.30449808697848        0.30644485123777        0.01086269990288
C            1.25671199107902       -1.09411719161520        0.06521546070634
C            2.43660082543294       -1.85648458127245        0.17710547459996
N            3.36350815798369       -2.52480791086893        0.28977317122067
C            0.01893140160103       -1.74207163590776        0.02281963407131
N           -0.00074563698858       -3.11809514042345        0.03778554933073
C           -1.20871762971767       -1.00324991689732       -0.07162034296194
C           -2.37488300291055       -1.74532212981714       -0.35220210335684
C           -3.70015541627465       -1.40783713614492       -0.22065827262134
C           -4.18720036374444       -0.19940912408594        0.29542629444254
N           -3.59778918869512        0.95430206352653        0.36308664794519
C           -2.34897422682147        1.28478062808163        0.02284872297374
N           -2.15822266291445        2.57541300229224       -0.19159631949035
C           -1.17081720699596        0.43382328996765       -0.00780793433491
H            2.13281587286808        3.47984397130086       -0.10223036463558
H            0.89440739577400       -3.55719574212599        0.19499238744779
H           -0.77627739335194       -3.58633196823656        0.47301792767845
H           -2.19482399727829       -2.75961720986709       -0.68671030704578
H           -4.43260178752847       -2.17257620090066       -0.43905293814952
H           -5.21459014132538       -0.18331357080979        0.64850051562917
H           -1.16184677325013        2.90081744528752       -0.23737309889983
H           -2.94843643398375        3.19241110307339       -0.09014585358935
