29
 energy: -50.412032330964 gnorm: 0.000275786752 xtb: 6.6.1 (8d0f1dd)
N           -5.41553569708363        0.19299504889623       -0.08806924894350
C           -4.26979503124404        0.31245813217351       -0.06948690429882
C           -2.87253660780690        0.43034831080821       -0.04046180797702
C           -2.34587297610497        1.72622191843680       -0.05669402102799
C           -1.03790454215472        2.13223884537207       -0.01585119290523
C            0.14859126221572        1.36386987213090        0.02244059845800
N            1.25391446604350        2.09797461698054        0.05090806189782
C            2.47886537461573        1.55658730257499        0.05085231474165
N            3.50421408355931        2.43736953368443        0.12316772925300
C            2.65490084304173        0.17454062233928        0.00188072221977
C            3.76277557015676       -0.69446260733985       -0.05207865759685
C            3.30686184509510       -2.00334808907259       -0.09791443865395
C            1.90361258457322       -1.99992463047974       -0.06709709093904
N            1.04361173380970       -3.03532707462207       -0.06085696554981
C            1.47212257361391       -0.63815982418487       -0.00716432605361
C            0.19055212655721       -0.10165796451368        0.01426955639033
N           -0.82795962861626       -0.98036155062033        0.03636441591740
C           -2.12537783414237       -0.78837052919042        0.02826736883216
N           -2.84803593664917       -1.93938453631286        0.05928034323668
H           -3.09063149428326        2.51354824521103       -0.09690057180969
H           -0.85282812573643        3.19795831183915       -0.02216035133737
H            4.44527125254666        2.12651995235242       -0.03130741556879
H            3.28465788717850        3.41414223098272        0.03892035463856
H            4.79688503613553       -0.39828802455268       -0.05887936284838
H            3.92311641817398       -2.88242326011229       -0.14820507933812
H            1.35230211043293       -3.96534389218387       -0.28200349788512
H            0.07105688116114       -2.76055283839610       -0.13592754614632
H           -3.84861767940472       -1.90728787663532        0.15054194776056
H           -2.36753010238413       -2.80671367946551        0.21837141173367
