29
 energy: -50.408764498971 gnorm: 0.000543144583 xtb: 6.6.1 (8d0f1dd)
N           -3.55028427310031        2.71493058244900        0.27341382338097
C           -2.84370902585714        1.81201500534690        0.16755063736231
C           -1.99306057484337        0.69566449669676        0.04604230859995
C           -2.62398233703109       -0.56059738569371        0.19241610813963
N           -3.94416315148315       -0.55684981081105        0.50032872006154
C           -2.04264062671806       -1.80450359911667       -0.05616217959089
C           -0.71708427380106       -2.16067303181540       -0.23470049696961
N           -0.49312792830818       -3.45371178684249       -0.58119649598321
C            0.44285015459532       -1.33836503150946       -0.01276302606763
C            1.65577443577989       -2.01146690416268        0.29292940048046
N            2.84357826004587       -1.47988752999328        0.41376513540327
C            2.93074727581493       -0.16897652324954        0.19915100267821
C            4.01674517575431        0.71252934941973        0.18975333419775
C            3.47215971564604        1.96086103375831       -0.06426604721545
N            2.13451586476948        1.93701569794242       -0.21851054408404
C            1.76085054085672        0.64982660430381       -0.06622311911724
C            0.48003963547457        0.08096206673544       -0.12359546317415
C           -0.64111420113560        0.99286691958262       -0.24396833733694
N           -0.32646879715435        2.24727042151138       -0.54909378399278
H           -4.44870668695552       -1.41964453532472        0.58543122109994
H           -4.43709983291161        0.30959440920648        0.62995548643445
H           -2.74967263430648       -2.62591981242205       -0.11167697057471
H            0.42055232904593       -3.75513005157555       -0.86476559155739
H           -1.27291325889843       -4.05845413647255       -0.76789601362387
H            1.62996005561296       -3.07140643051978        0.51522390896939
H            5.04914484646926        0.47365805606710        0.34498593677921
H            3.99508249895176        2.89759399843811       -0.15183686424086
H           -1.04138989910317        2.95813489390300       -0.53110126542524
H            0.70316552449034        2.48355804304820       -0.52461801383308
