25
 energy: -43.512143468020 gnorm: 0.000961485230 xtb: 6.6.1 (8d0f1dd)
N            3.06022131611601       -2.73818472594110       -0.00357425947452
C            2.59416953518781       -1.68983647591833       -0.00256695817600
C            2.08320699995276       -0.36789252076852       -0.00210836494420
C            3.03799042438581        0.64949255591264       -0.00121901607415
C            2.82796339381269        2.01161134563950       -0.00070050015146
C            1.59081103517499        2.67528872571688       -0.00083318108653
N            0.36714305499359        2.23790754776421       -0.00087615970021
C           -0.09582205483968        0.98159531528490       -0.00123472326438
C            0.66651198095370       -0.28350494472524       -0.00224106761023
N            0.07275407592580       -1.46644708153317       -0.00309996597458
C           -1.25970564011154       -1.59818149935816       -0.00287868269372
N           -1.71026307586897       -2.86217862024502       -0.00389135610391
C           -2.09986879408928       -0.47575080446812       -0.00155422611192
C           -3.48061900213496       -0.28450994277000       -0.00098963950540
C           -3.72643186482902        1.09919907012466        0.00014487772057
C           -2.52766962639007        1.78323777588910        0.00028822014113
C           -1.48008817625465        0.82958241955449       -0.00077129838539
H            4.06834363708176        0.31157967610741       -0.00107835228519
H            3.70530885881569        2.64430795842372       -0.00019140649467
H            1.64161571286692        3.76255590626556       -0.00071752158629
H           -2.69351901102689       -3.06067108633646       -0.00408297492796
H           -1.03480637769463       -3.60701603539706       -0.00500433309753
H           -4.23479320860672       -1.05129261609478       -0.00135936403922
H           -4.70386236599557        1.54689404988652        0.00078061900741
H           -2.38689204282557        2.84641852508633        0.00103001101832
