29
 energy: -51.191358769407 gnorm: 0.000971108001 xtb: 6.6.1 (8d0f1dd)
N           -3.91018470435531        2.68352629651109       -0.09744010833726
C           -3.26728248676680        1.73212780323467       -0.09248412209266
C           -2.55879195557468        0.50602639093090       -0.10494678763697
C           -3.31624133865074       -0.60066479399974       -0.46399117103388
C           -2.96151817483200       -1.93902119297830       -0.44971649843744
C           -1.74473183456411       -2.46501071001862       -0.03912925555227
C           -0.54539285786551       -1.81634462535918        0.21086177858292
C            0.44270367727833       -2.63952594056129        0.77337068656818
N            1.22966300916886       -3.33325815023961        1.25115369555121
C           -0.18422100858764       -0.42811133421511        0.02840401712123
C           -1.15773165014074        0.64006822658093        0.15037006985765
N           -0.80557566602729        1.88561237247983        0.44901433141389
C            0.47044493090726        2.24300844151264        0.49352393803182
C            1.46667768465778        1.37860066479073        0.12475643462185
C            2.87898320430403        1.53189938035126       -0.04180729325620
N            3.55809602101911        2.68491025259958        0.11618616620528
C            3.39404192490010        0.30278895687557       -0.43981178914357
C            2.36858485915593       -0.65052022229968       -0.50430570932255
N            2.55155574390239       -1.88493471784706       -1.01729473814943
C            1.13255205583808       -0.01204002473662       -0.12854569719026
H           -4.34274420607863       -0.38096029260609       -0.73557394385576
H           -3.73433334017442       -2.65103938653242       -0.70378570432046
H           -1.71791573533121       -3.54043556494898        0.10542812348231
H            0.65025092395851        3.26870176448452        0.79046797080198
H            4.55964214568000        2.69052990087653        0.04903929594067
H            3.09231262989973        3.49489301412079        0.48211962150434
H            4.42350615686774        0.10501567273244       -0.67586278559261
H            1.87486535137409       -2.61186061903327       -0.85867331914314
H            3.50344971443741       -2.18734725260565       -1.14398961991926
