27
 energy: -47.747809751509 gnorm: 0.000838679738 xtb: 6.6.1 (8d0f1dd)
N            4.57929108501269        1.12974946976505        0.56440270339443
C            3.65160217160507        0.49021789316061        0.35622891234785
C            2.52309289720609       -0.33790465710352        0.11921689450482
C            2.80657847813835       -1.67653425145215       -0.15306152509705
C            1.89372072422125       -2.68657589632152       -0.39602041483833
C            0.51120907092334       -2.65079612846710       -0.28807155512346
C           -0.38647758731931       -1.61747078392320       -0.01178572547995
C           -1.75628109055182       -1.97715803568044        0.15641615855125
N           -2.11604959245515       -3.30938175672416        0.27238867765665
C           -2.76809173391440       -1.02312168672672        0.12534332710999
C           -2.45179164637131        0.31382509326830       -0.01683465556339
N           -3.29011663598550        1.36580584035553       -0.06452672865107
C           -2.52357199381535        2.44541746679625       -0.12669688266541
C           -1.14252278845689        2.14960022294922       -0.11357956919604
C           -0.12396701967260        3.09676174413165       -0.17429541547957
N            0.70289268582187        3.89562181767485       -0.22935138235497
C           -1.06547673218858        0.73637347716300       -0.04972022091270
C           -0.01552532348899       -0.19073829395148        0.00634915459011
C            1.28228785986739        0.30426380976919        0.11646663184029
H            3.85627582302244       -1.94065634823749       -0.19617171837429
H            2.31540142966353       -3.64781730512635       -0.66012732218975
H            0.03721060903086       -3.60633259572952       -0.47856882110884
H           -1.51286385224705       -3.90874574326448        0.81217942019304
H           -3.09516684935447       -3.45647390087845        0.46344163399339
H           -3.80170848694232       -1.32305279601486        0.21291833279635
H           -2.95844815203839        3.42715036521871       -0.18173078766482
H            1.34430816418949        1.38241293354888        0.22275282712154
