28
 energy: -53.076121668513 gnorm: 0.000885852763 xtb: 6.6.1 (8d0f1dd)
N            5.13823218217581        2.73637524320063       -0.00069463330024
C            4.21557319161569        2.05871506921517       -0.00050818016082
C            3.06445765680706        1.22182868889516       -0.00042948597481
C            3.31584320526034       -0.14878464231823       -0.00021164114526
C            2.35994146017957       -1.16306628222099        0.00000851864660
C            2.88628968221759       -2.48675239640238       -0.00033584329923
N            3.33162656535176       -3.54077705093523        0.00036953542366
C            0.97089575640791       -1.07104893695716        0.00009296081192
C            0.10331172321828        0.03084367151442       -0.00005928875018
C            0.51909029525802        1.43516095907301       -0.00044289381566
C           -0.46434374401963        2.44261748430559       -0.00064043964478
C           -1.81673485643869        2.17872991569846       -0.00059778241189
C           -2.24039291945853        0.85986771556126       -0.00019359268618
C           -3.53810922987802        0.29565722352645       -0.00042181329371
C           -4.73432397577573        1.01947741555183       -0.00230329425500
N           -5.70529479957497        1.63257887697969        0.00210881336533
C           -3.40110327458273       -1.09650559424952        0.00026346361269
C           -2.03924217146189       -1.42608340011720        0.00049302458930
C           -1.59139849492749       -2.75111800377514        0.00099276524254
N           -1.26436809485334       -3.85350895785829        0.00089073780982
C           -1.28015999444768       -0.21968941856586        0.00010965326983
C            1.84431296956918        1.89193444602189       -0.00057691348076
H            4.35486478139486       -0.45598702957165       -0.00027126639276
H            0.47252286790977       -2.03358097693232        0.00027435058634
H           -0.13549138858740        3.47110519667346       -0.00087259165334
H           -2.53700808425791        2.98348197123059       -0.00084323267659
H           -4.20807051219890       -1.80627816853014        0.00022978928561
H            1.94081885559724        2.97305975298626       -0.00082857570226
