24
 energy: -42.995959991835 gnorm: 0.000594025742 xtb: 6.6.1 (8d0f1dd)
N           -3.37812734311299       -2.02563707908159        0.54108246522066
C           -2.68422278753470       -0.96303870520405        0.08699306607416
N           -3.44640532183660        0.03101291990241       -0.39633384418027
C           -3.04900718136119        1.27745765247641       -0.49259565308086
C           -1.87022140525199        1.88438981033180       -0.08178739590196
C           -0.63966457750763        1.26881306446080        0.20491890246817
N            0.36500494938758        2.10269158460670        0.48898967349894
C            1.62050903267453        1.68898440037912        0.47047688790282
C            1.95629311492105        0.41252640904151        0.07661991039722
C            3.15778354157110       -0.33590712961303       -0.10108878839940
N            4.42128195698634        0.11445477711333       -0.02147130955718
N            2.89158270411718       -1.62495106141164       -0.38723292896879
C            1.56461039500705       -1.76080527073586       -0.40454684141187
C            0.90189993155527       -0.55059216032084       -0.13937464344317
C           -0.43713276463441       -0.17740632704968        0.02215283540474
N           -1.37520092622739       -1.11028051859400        0.06113992026177
H           -4.37419276774316       -2.04035244799689        0.41312833157497
H           -2.88081193541555       -2.86976960972886        0.76243623655535
H           -3.81080052338504        1.92701085082068       -0.91590082159670
H           -1.83134641780316        2.96526743719749       -0.11098059179712
H            2.35719651883763        2.43111779404927        0.75688647594959
H            5.17018047746263       -0.54948774958284       -0.10569369562697
H            4.61298580467425        1.05486750194919        0.26989068219297
H            1.11852868491892       -2.71697327110984       -0.60388597253699
