29
 energy: -50.388067200342 gnorm: 0.000536371578 xtb: 6.6.1 (8d0f1dd)
N            5.29737889569713       -0.27348137571149        0.44037720751746
C            4.17586691721619       -0.45572643304637        0.25822173290442
C            2.80346531529874       -0.66042038414409        0.03044268920284
C            2.44395460176543       -1.90308212569993       -0.53473191344425
N            1.29469523411391       -2.49706025731215       -0.48928619029057
C            0.14148690819019       -1.99049335779923       -0.07099828374194
C           -0.30571583818771       -0.68007219199953       -0.01652914984322
C            0.54825344358162        0.50586862382180       -0.07000985385289
C           -0.03975528157291        1.75812460392957       -0.29507271218090
N            0.74480246662607        2.91240703745392       -0.46309923630542
C           -1.43321965770832        1.93077646645020       -0.33654560398269
C           -2.26515024221706        0.87148118644805       -0.09349907741265
N           -3.61329251300290        0.85214334273909       -0.02822580150693
C           -3.93897526876927       -0.42543237302778        0.16302261773645
N           -5.23265460398012       -0.82004534223953        0.23674160296148
C           -2.80473300539441       -1.29138341556063        0.22171276803402
C           -1.70718109309123       -0.46944465746086        0.07755648008495
C            1.93519790461497        0.41725195934413        0.31248827618398
N            2.47195307409790        1.46908650907362        0.95633963888992
H            3.24392801940327       -2.49387358397027       -0.97143576661383
H           -0.59820205935891       -2.76206571475829        0.11312313501311
H            1.57960395000247        2.77761525118352       -1.01781171392471
H            0.20065626107891        3.69277929091999       -0.80502897244063
H           -1.84202861920586        2.91130879504236       -0.53159382114456
H           -5.44238118248730       -1.72692659599055        0.61457607676562
H           -5.91948867457303       -0.09387211637674        0.34605704834256
H           -2.84925270853785       -2.35443253160673        0.35761235013357
H            1.92167758750069        2.29937657337232        1.10752371226073
H            3.44260244220097        1.45159599572799        1.22339354785538
