30
 energy: -50.123104017887 gnorm: 0.000673256501 xtb: 6.6.1 (8d0f1dd)
N            4.41416665753065       -1.71713048013735        0.73885440444032
C            3.52250107193601       -1.04074080561034        0.47572432142713
C            2.43317342058263       -0.19779534370339        0.16787812496818
C            2.71802795292788        1.15952557113376        0.17554793391993
C            1.89093589159699        2.19561392887723       -0.19362740831539
C            0.50974670301483        2.18716099763917       -0.39433412064879
N           -0.00651529516315        3.29769120851453       -0.96563622799485
C           -0.41451372048004        1.13688287494599       -0.04006684662012
C           -1.74529321962215        1.51116535237723        0.31189426225227
N           -2.05126672334313        2.86736827347828        0.59865129765112
C           -2.77651625938054        0.59720821841565        0.38552841743690
C           -2.53646062988997       -0.73510164465712        0.08887981338820
C           -3.31338821958699       -1.89995717608814        0.03228278922798
C           -2.42547610268051       -2.92327313085834       -0.25241127202771
N           -1.15835801205070       -2.49283252846735       -0.37894395733016
C           -1.18229265940939       -1.15567107049445       -0.17604023779701
C           -0.09784834410782       -0.25787107016933       -0.16197129627024
C            1.21851573067589       -0.84825919554058       -0.20183509723223
N            1.28770363023940       -2.14132722356566       -0.49588848040369
H            3.74237798631506        1.41964980173866        0.41484570865480
H            2.36962721052562        3.15718400215993       -0.33710662839880
H           -1.00739472109258        3.42395887039269       -0.98607582210884
H            0.59192381548552        4.08400393305071       -1.14934903214273
H           -2.98514847773777        2.95116000351564        0.98055416678914
H           -1.38158848186870        3.30141661760048        1.22284970963779
H           -3.76768135287210        0.92869383493030        0.66681682013733
H           -4.37295067753464       -1.98369849625697        0.17593326443375
H           -2.64565404178386       -3.96850519817508       -0.38314301647407
H            2.16918021815357       -2.62155807778469       -0.39735352446229
H            0.35490882452017       -2.64669533006162       -0.55157850123770
