26
 energy: -48.039426279582 gnorm: 0.000548838682 xtb: 6.6.1 (8d0f1dd)
N           -4.52762195090430       -1.95697494368315       -0.24539992821523
C           -3.56144052892928       -1.33567158989847       -0.18063960131966
C           -2.41021860075462       -0.55583995813437       -0.10564706779247
C           -2.39246330585742        0.86373358910211       -0.06091313231939
N           -3.47526005021371        1.66160805753088       -0.08026614434297
C           -1.04688827702125        1.29529863919892        0.03129141450409
C           -0.67911815380168        2.63731484707823        0.06556801805185
N           -0.43270371586155        3.76204556479627        0.09097640039472
C           -0.21395617596987        0.14773034206429        0.03829010830024
C           -1.07864377639323       -1.01025346306304       -0.05569036881350
C           -0.53834746639806       -2.29005023371984       -0.03519949379240
C            0.82753206166253       -2.44165531574740        0.07170043955547
C            1.71282397986128       -1.35146351635793        0.07850279502722
C            3.09075841239694       -1.61818836363470        0.23768233520871
N            4.11871477286224       -0.88979397670991       -0.11633422608975
C            4.07675182385350        0.37715380640299       -0.45730604247618
N            3.24623563739613        1.28732149423305       -0.00451631048549
C            2.00876275080975        1.12144394802222        0.35262387810873
C            1.17151742124595        0.00522490679888        0.08392965056315
H           -3.36465074941834        2.66023338741470       -0.08713462069729
H           -4.39123390490938        1.26478812703610       -0.19321801759524
H           -1.18729358906884       -3.15186175775853       -0.08501626051318
H            1.24945009791861       -3.43456752205488        0.12035894287387
H            3.36062408982593       -2.61268763810339        0.58220849961885
H            4.91077354750933        0.74302253656825       -1.04628753785486
H            1.55389020546062        1.98773595521956        0.82243407010033
