26
 energy: -48.030808576528 gnorm: 0.000839466618 xtb: 6.6.1 (8d0f1dd)
N            5.16351982379259       -1.81708994220289       -0.14310421928624
C            4.16339883606476       -1.25332484260998       -0.13235524623583
C            2.95675992277241       -0.51918815178314       -0.10971246053586
C            1.77266299645261       -1.23071063880992       -0.19345578783989
C            0.44326261728058       -0.79283361258731       -0.09279502615545
C           -0.55625954133454       -1.79302929700641       -0.00166056581381
N           -1.84583870932765       -1.58409646639583        0.09356049927068
C           -2.26760035476924       -0.33212930999970        0.07824167711672
C           -3.57962012642664        0.17496908681380        0.12689574505622
C           -4.76075998016485       -0.56431792828150        0.20970804627436
N           -5.74702025442095       -1.15026251470203        0.27757544047480
C           -3.48734385998408        1.58279571561647        0.07109283193656
C           -2.15964875881355        1.97143721765581       -0.02362805068833
C           -1.36098558925841        0.81819912143336       -0.03340492336892
C            0.01106481232605        0.58794342973901       -0.13530420080460
C            0.88528319067647        1.67289052801599       -0.41287805402491
N            2.16399948948103        1.80128956577246       -0.25112642046207
C            3.08272948428612        0.89656239672572        0.06016310967160
N            4.25696566804567        1.40076240611058        0.47429990952068
H            1.89366123796983       -2.30549999954522       -0.28240746197823
H           -0.25463617082329       -2.83263278847507        0.01198206483421
H           -4.33399428744980        2.24535577750049        0.09764603534487
H           -1.81461318142868        2.98837552192169       -0.05764313734177
H            0.40808854590696        2.58135594539591       -0.76877455718533
H            4.35692566766676        2.40020056713825        0.52889741648111
H            5.05047857547983        0.80483998185962        0.64018390413968
