35
 energy: -61.539256946356 gnorm: 0.000619607354 xtb: 6.6.1 (8d0f1dd)
N            5.20415509956796        0.22957487814880        0.07472040093694
C            4.10469121021825       -0.11098959940142        0.03347553488832
C            2.80837917620428       -0.60248814354644       -0.04555645749635
C            2.46702837076930       -1.97222131461364       -0.19795102531069
N            3.34382410909035       -3.01168462388723       -0.21204355843950
N            1.14640595202073       -2.16086790349758       -0.27345945213835
C            0.56358697941180       -0.93151386979242       -0.17806580076556
C            1.57756446484259        0.07514170923183       -0.03209845120689
C            1.19601226975305        1.40715714578215        0.15106802864138
C            2.14435117353898        2.40180070859517        0.44804251360339
N            2.87098754065786        3.25199249849802        0.71498523033687
C           -0.15869043381393        1.74623729600209        0.05402904818535
N           -0.49798944023247        3.10479824640781        0.19344990949675
C           -1.15729565680645        0.77019358507588       -0.18364575562732
C           -2.48179181889125        1.24125543636651       -0.54657532095706
N           -2.53371479481499        2.36491763106664       -1.30433223604824
C           -3.69015858384510        0.67891500549019       -0.19529957730850
C           -3.94833636642358       -0.57963883050727        0.36561711548838
N           -5.22743756044738       -0.81777603005252        0.77719677219528
C           -3.06319350149191       -1.64820705526542        0.37478943657715
C           -1.73748290148944       -1.72190741043695       -0.05824028044924
N           -1.23583463914716       -2.94428640089915       -0.26028431124775
C           -0.80407650553773       -0.61890104854658       -0.17125215374959
H            4.30764828691342       -2.79014974651163       -0.39909335772309
H            3.00258940228636       -3.89146434696929       -0.56005338091314
H           -1.31913437766180        3.27218833957010        0.75890729668813
H            0.28763623408510        3.65981497950952        0.51039696565059
H           -3.42285911302046        2.79297008718617       -1.49308901366604
H           -1.69726013026438        2.90859114531628       -1.44409786687729
H           -4.56813598455570        1.27873279427672       -0.40759597825060
H           -5.43138538332910       -1.66370755508207        1.27856654485078
H           -5.85699944129657       -0.04551335560644        0.90086701217778
H           -3.49403904871221       -2.59755796580988        0.67623145360229
H           -0.19877509109761       -3.00672842183846       -0.34372051748038
H           -1.80093222818106       -3.74717250655945       -0.03967962086317
