27
 energy: -46.961422391787 gnorm: 0.000640253023 xtb: 6.6.1 (8d0f1dd)
N           -3.81757515859603       -2.23744538260170        0.37852127234079
C           -3.01569278969761       -1.41797816354429        0.27977499462498
C           -2.05045034556366       -0.40351555727798        0.14834083637502
C           -2.52826637926830        0.85756617836164       -0.30859848978595
N           -3.72005168588021        0.91358524862565       -0.93368597221496
N           -1.96928040769376        2.03014127130005       -0.06446632504907
C           -0.74223538995394        2.28867520312938        0.29600312135743
C            0.42479013913238        1.51099010699233        0.22838230955593
C            1.64976250713529        2.22410751207136        0.28125038010294
C            2.86839872657072        1.62403460703529        0.11910331322548
C            2.91175504861445        0.25069862163870       -0.12096130969326
N            3.97046881454195       -0.51700657524628       -0.35121263864641
C            3.48956831295054       -1.76491664197055       -0.52717955405105
C            2.11916275446704       -1.85573573564490       -0.36732516299863
C            1.67619389682440       -0.53850024834493       -0.10255425384639
C            0.44423971160462        0.07370334804395        0.12890774242091
C           -0.71331989580368       -0.73822350311226        0.42330705905495
N           -0.47667744353217       -1.94761729558120        0.95410489255370
H           -4.10198478516627        1.81948615917707       -1.14375311457547
H           -4.28933974167196        0.09190074219868       -1.04054154205703
H           -0.60721384753603        3.33145121418465        0.57230293854813
H            1.59464233744029        3.29349031809129        0.42500236126372
H            3.78538059420163        2.19095629401491        0.15433405830321
H            4.16718577951668       -2.56757739151599       -0.76101015369215
H            1.53528355296459       -2.74371563237697       -0.52781103502054
H           -1.23411215361487       -2.58129596847178        1.14865037237253
H            0.47182160891318       -2.22096441217612        1.15419857403092
