29
 energy: -46.398131525216 gnorm: 0.000567797692 xtb: 6.6.1 (8d0f1dd)
N            4.35177830999897       -2.23164270115645        0.38894038428028
C            3.35355342042531       -1.67540363781652        0.28060015873607
C            2.12342069342908       -0.99691295453095        0.15619291861245
C            0.93560308991825       -1.69531219279844        0.22101716988912
C           -0.32939944808292       -1.07181977512915        0.12040042018192
C           -1.41774701117468       -1.96031340216890        0.02058527091145
C           -2.75122331652583       -1.75549588800064       -0.21216035126495
C           -3.45821886356588       -0.54283804108742       -0.19579148845032
N           -4.80457405994776       -0.60536339537987       -0.41215267476646
C           -2.92371742159336        0.69077974619760        0.17016660794581
C           -1.60917237215836        1.09567659090990        0.35523717560795
N           -1.44488668766464        2.36186700736304        0.81506803869376
C           -0.39342429640319        0.36735208350640        0.07600028596429
C            0.80175898128672        1.06886255124661       -0.12445332249131
C            1.10021878935127        2.42308930365575       -0.40662967247136
C            2.47484414994841        2.55560424732554       -0.52008439994728
C            3.09373993993478        1.32055043059975       -0.29238699458462
C            2.09236180665851        0.38587704904539       -0.07897443500429
H            0.97018966283284       -2.76984278474689        0.33295713313384
H           -1.12594936001930       -3.00434833077254        0.04489995309815
H           -3.35237159697973       -2.63944896289558       -0.38753446313579
H           -5.32534451370390        0.24388129654975       -0.53887487088734
H           -5.19776321364275       -1.44797863671548       -0.79189743583274
H           -3.66055083674169        1.47322606414442        0.32609967366385
H           -0.52826104508770        2.64205326615130        1.12563906913620
H           -2.24333963824170        2.86490184287698        1.16108387036888
H            0.39825548649806        3.21004519673962       -0.61655430818218
H            2.98952827044025        3.47190480526361       -0.75226029734979
H            4.14916146090911        1.12113700502183       -0.30897964665478
