25
 energy: -43.506063353160 gnorm: 0.000925950412 xtb: 6.6.1 (8d0f1dd)
N            3.50623588046989       -2.77692187455562        0.00409092467929
C            2.95197169130430       -1.77010199170088        0.00292326033586
C            2.33936488927486       -0.49639126164130        0.00044676431245
C            3.25837137543245        0.54892044332646        0.01943412289312
C            3.02310803179919        1.91205817755252        0.01136843475481
C            1.77201665403541        2.53831570104866       -0.02447846249940
N            0.56192309473033        2.06192026489471       -0.02787604662081
C            0.13603512479983        0.78669944350709       -0.00846528503601
C            0.90484695390494       -0.45298437980546       -0.01119255556866
C            0.22691911209130       -1.67561019652389       -0.01677971787656
C           -1.15735610250855       -1.79283608613878       -0.01073640685494
C           -1.90904409036227       -0.64248234845939        0.00235467799928
C           -3.30151645599172       -0.32982492428040        0.00938311276691
N           -4.33577448497434       -1.18373193562339       -0.00273926949427
N           -3.50068026428918        1.00657563876355        0.01544059861907
C           -2.30521360109993        1.58508748791654        0.01206907882657
C           -1.25275628536307        0.64085300509665        0.00387176772945
H            4.29854105466656        0.24062313591805        0.03697331167365
H            3.88781260841746        2.56084444257269        0.02444812246263
H            1.78741921326089        3.62647488853126       -0.05052912218022
H            0.81581677981016       -2.58148067763263       -0.02416137839557
H           -1.60999668952051       -2.77456416279568       -0.01575178127130
H           -5.26670969111745       -0.80795286088693        0.03765421400079
H           -4.18993483520964       -2.17535412502825        0.04547016146414
H           -2.21204675676113        2.65418536104441        0.01659596837978
