30
 energy: -50.923376515111 gnorm: 0.000740875668 xtb: 6.6.1 (8d0f1dd)
N           -5.65641252076554       -0.16817873493761        0.02643754750462
C           -4.50840254153136       -0.09086672381779        0.01505695606602
C           -3.10330336527380       -0.01487419433077        0.00398484612494
C           -2.55743416128704        1.26493816469893        0.00831063985053
C           -1.24116889823664        1.66905744303241        0.00166265170115
C           -0.03649589506888        0.94290789292648       -0.00163105630602
C            1.15496714305836        1.71466386094265       -0.00298810717762
C            1.10425768889703        3.12237319678463       -0.00402762151774
N            1.13226934480058        4.27169335989806       -0.00232167954906
C            2.43268140352341        1.14659173986536       -0.00157058680774
C            2.54949511193599       -0.21848390067692        0.00472194217399
C            3.68690871278001       -1.07902026339604        0.01442204437877
N            4.98436820248818       -0.68167640415145       -0.03500296641722
C            3.21447995014526       -2.39684426752345        0.02229491897644
C            1.82720384132081       -2.38566464081489        0.01856824668466
C            1.36690198636122       -1.05205493282585        0.00763156854337
C            0.07178059397158       -0.50506442962865       -0.00162350314882
C           -1.01220498611172       -1.40240894749508       -0.01555289877400
C           -2.38936921443719       -1.25008169544723       -0.01249944600271
N           -3.14118740076058       -2.38240946046920       -0.03321708305751
H           -3.28905511291681        2.06508248045638        0.01753943899512
H           -1.10654766837978        2.74458733816252        0.00316961261919
H            3.29514305262710        1.79988690225401       -0.00587083812429
H            5.70127251949677       -1.36019801301520        0.15398704924271
H            5.20277822018051        0.28115666033844        0.15229921991801
H            3.83437229620415       -3.27489937406999        0.03114784498083
H            1.22390709822468       -3.27520556744622        0.02840395372380
H           -0.70485859238714       -2.44095253263555       -0.02891711683324
H           -4.14445537822667       -2.32764593319601       -0.00717906169877
H           -2.70259162493228       -3.28475644768250       -0.02005662036987
