27
 energy: -47.759089585867 gnorm: 0.000935561117 xtb: 6.6.1 (8d0f1dd)
N            5.81041845786762       -0.57397516328314       -0.47409607898714
C            4.71278841763169       -0.25748485878851       -0.35256312474869
C            3.37463464727720        0.12851240474679       -0.20037035538938
C            2.92320101506409        1.44756035770587       -0.00098346371549
C            1.52757816954993        1.41028164834123        0.08967091648174
C            0.57358458219521        2.39417040908571        0.33194012596845
C           -0.76072876593132        2.05277436852320        0.35108345488463
C           -1.21708392201015        0.73853584698310        0.14132205382036
C           -2.58792447961259        0.53033300944977       -0.10610440286304
C           -3.42587728275670        1.67123128688758       -0.15926522105038
N           -4.15867527414324        2.55411926519005       -0.20197810944955
C           -3.27818106149225       -0.66165900609623       -0.41177058759485
C           -2.84890604591778       -1.95257438750181       -0.30772158624130
C           -1.56126511522822       -2.35808864097220        0.15048793732110
N           -1.40727255917234       -3.64423471684229        0.53179960535572
N           -0.46106287021747       -1.64731480879188        0.17173790220560
C           -0.22811297760112       -0.35194939366997        0.05844663979627
C            1.11392502908333        0.03569012483205       -0.04941904689147
C            2.27433875941831       -0.73882867441600       -0.22221322130158
H            3.54739626113308        2.31850390035134        0.07411438300747
H            0.87079489032162        3.42227855918823        0.47948604766726
H           -1.50018999058487        2.82781303056027        0.49274321063302
H           -4.30635363858923       -0.51699060970771       -0.72434231553293
H           -3.54787453802170       -2.74225079165244       -0.54712173407215
H           -2.16580984547068       -4.29993324613059        0.49407477106324
H           -0.49414707062988       -3.95085213723770        0.81798407196948
H            2.31106343093821       -1.80258131535477       -0.35941787623643
