27
 energy: -50.983410922972 gnorm: 0.000806984320 xtb: 6.6.1 (8d0f1dd)
N           -1.59323598232243       -4.02700914613869       -0.50429821850796
C           -0.91098676744459       -3.11317228542826       -0.37435103168510
C           -0.04134289509350       -2.01410622444159       -0.21373891278310
C            1.33164929367778       -2.23647342644993       -0.15781775610342
C            2.15982455922226       -1.14583170949463        0.03110028659252
C            3.55845906464361       -0.94108048480308        0.12666205664501
N            3.88130635075741        0.34009877817258        0.25475664498193
C            2.71841803287700        1.03657564016024        0.24308363887070
N            2.62930641226664        2.35930717713464        0.33921349902062
C            1.59489561211843        0.16672549313931        0.11221136107423
C            0.23858055556855        0.44760675111436        0.02247067138101
N           -0.12681694105598        1.73597088869695       -0.04106341791996
C           -1.36554679457899        2.19712425306823       -0.16924253158392
N           -1.43707808424442        3.51972039890958       -0.43616483809311
N           -2.55597113327859        1.62735386782903       -0.00265141753335
C           -2.75833415735305        0.32806189613965        0.17889341085557
N           -4.01640600094834       -0.00981342675854        0.51360098550520
N           -1.95628166026870       -0.72508087297250        0.02655285900223
C           -0.63784281336069       -0.72743663516589       -0.07344970233485
H            1.71888438722610       -3.24099181405705       -0.24926962777661
H            4.32812322979730       -1.69118986285448        0.09703731160184
H            1.69074783875361        2.73507704448775        0.28595272557956
H            3.45370870993437        2.92749524926789        0.42214389930438
H           -2.34185149815037        3.93268018415116       -0.56840593037340
H           -0.60274374901548        4.04111478242819       -0.63073622635200
H           -4.25248741445122       -0.98564357825272        0.55020367222123
H           -4.72430394567653        0.70035875151808        0.55664026101032
