25
 energy: -42.731480753443 gnorm: 0.000803851119 xtb: 6.6.1 (8d0f1dd)
N           -4.45900219471766       -0.39173282415027        0.00363667348616
C           -3.13033882406965       -0.11888770787608        0.00167713860642
C           -2.78230237334181        1.25645594657454       -0.00656230802522
C           -1.54738165041961        1.82560567258156       -0.01030277108216
C           -0.25225371203964        1.25757300373477       -0.00489246817387
C            0.82087228724839        2.19168749389348        0.00088800573662
N            2.10042401349931        1.93037057661914        0.00886847837226
C            2.42656652800043        0.64098829656280        0.00983711554435
N            3.64511862191948        0.08030025961798        0.01690152498025
C            3.39274403525239       -1.22469361452346        0.01241123098345
N            2.10807034717711       -1.59519521351619        0.00285015938901
C            1.43451390324660       -0.41604367311049        0.00134498402045
C            0.06828798140532       -0.13521024550629       -0.00481991192428
C           -0.85798664148797       -1.24744001560528       -0.00970369978780
N           -0.28821142782534       -2.45056277856064       -0.01835546993123
C           -2.25700989337352       -1.19417587642613       -0.00202441513040
H           -4.78914244067260       -1.33929239495620        0.03600807730122
H           -5.13319018737746        0.35142970478863        0.03509241908650
H           -3.62733123772294        1.93461132827214       -0.00924359614656
H           -1.54396897928111        2.90994068788694       -0.01549819401539
H            0.57630217830682        3.24745836262204       -0.00017625509954
H            4.18292294061053       -1.95386360644020        0.01640976045845
H           -0.85275407207851       -3.28289896110098       -0.01834266879822
H            0.75592852026516       -2.48379519580007       -0.01389850366068
H           -2.73624283222360       -2.16908035408162        0.00064263591023
