27
 energy: -46.963901867515 gnorm: 0.000381542602 xtb: 6.6.1 (8d0f1dd)
N            5.29204215465519        1.68566192922209        0.67398052113811
C            4.25907910499805        1.21161153341544        0.50292790342270
C            3.01122987415479        0.61367342742357        0.29468021705853
C            2.79827129509630       -0.78393277202984        0.17948417220912
C            1.43910064711087       -0.99190191804589       -0.00137529893102
C            0.67660230178024       -2.16379365166856       -0.22448685716124
N            1.27505151340562       -3.37195764737095       -0.30081021862783
C           -0.70395100985201       -2.03856459182594       -0.33849584613521
C           -1.36939407552524       -0.81115181332002       -0.26929444076252
C           -2.74192937716746       -0.79275181006087       -0.03024777046730
C           -3.58333015255080        0.31890233687350        0.17478253809489
N           -4.77899965022278        0.10920077239122        0.77446354338210
N           -3.39957687019940        1.57241135813781       -0.23603296133923
C           -2.27120396268550        2.04003717161845       -0.71881547851099
N           -1.04035062845215        1.63126714625373       -0.58157400773371
C           -0.57414174500983        0.43736883676579       -0.26138041772895
C            0.79322225185946        0.29601916488628       -0.01297386271685
C            1.79191587659170        1.27371005578929        0.16690479515151
H            3.57902686698526       -1.52257832993462        0.22089795320122
H            2.25962670245000       -3.45449517894815       -0.12668632848803
H            0.72694666148261       -4.20744178448763       -0.39944298660600
H           -1.29785740190176       -2.93856586514463       -0.42822957212822
H           -3.20261363467596       -1.75972645653612        0.14413475750815
H           -5.10006644984903       -0.81616974972656        0.99159356960924
H           -5.41773365147288        0.88271448839240        0.82832607326144
H           -2.36991724386218        3.00027833811319       -1.22014462696497
H            1.63193629745164        2.33375960081958        0.20697628946093
