29
 energy: -51.209035033134 gnorm: 0.000509321611 xtb: 6.6.1 (8d0f1dd)
N           -3.89996612922089       -3.44778023472319        0.17067899965945
C           -3.40556174257243       -2.41345010250496        0.12964692759221
C           -2.81825758498800       -1.12653768260278        0.07999583281236
C           -3.71339401903562       -0.03751004110702        0.14853269213344
C           -3.42787812609373        1.28854380646598        0.03004511202397
C           -2.19050081850157        1.97168822354565       -0.10700556360259
N           -2.33334284425595        3.29763441971553       -0.34586870722723
C           -0.87855932020018        1.44376141104948        0.03136489564209
C            0.19247657037244        2.34931648608382        0.19030352278225
C            1.52023514705354        1.98259931399551        0.21970434170726
C            1.85402684454709        0.64689186731618        0.05150304353428
C            3.04774525501947       -0.09096450336020       -0.00032439482027
C            4.36037456026782        0.35439319328957        0.05094830449805
N            5.46012668424238        0.69636286173127        0.08023005597785
C            2.62849841992811       -1.45057529059122       -0.13885680191276
N            3.44321135249701       -2.52275279013321       -0.19046338248442
N            1.29667573596315       -1.57697553654814       -0.17001773724191
C            0.79504518806684       -0.33080738478186       -0.06408614126380
C           -0.56491083567290        0.02266121655781       -0.02968687952169
C           -1.44510074467958       -1.06818125958477       -0.04388626712147
H           -4.75815628047777       -0.30118827647824        0.26177237864808
H           -4.28799178258258        1.94943941122333        0.03492016292677
H           -3.25328701000082        3.68183794568992       -0.47204778577254
H           -1.54866878363617        3.86804882017408       -0.60129932997941
H           -0.02129304834751        3.39519787506852        0.35447825041838
H            2.28870343887637        2.72747460095218        0.36864068945825
H            3.03632427117910       -3.41487491250410       -0.40746320624070
H            4.42974291849578       -2.38679779784965       -0.32217125722120
H           -0.92564371024354       -2.01803667278975       -0.11429659600467
