28
 energy: -51.477105011739 gnorm: 0.000860844242 xtb: 6.6.1 (8d0f1dd)
N           -5.08888107894879        0.84114378186071       -0.09202895033948
C           -3.95445836070663        1.02434005156366       -0.05753624748276
C           -2.58431381662835        1.27667294251050       -0.01503226187000
C           -1.96140862616723        2.54788193286875        0.02720822261248
N           -0.63876675371152        2.48483344437480        0.05621511896299
C           -0.32428652486490        1.16925324802994        0.04312816777673
C           -1.52255642042768        0.35893292593831       -0.00722523577663
C           -1.40326215341382       -1.03283976586047       -0.06247130903445
C           -2.54672403429845       -1.84845643232888       -0.18551429224262
N           -3.44347378930814       -2.55560160503333       -0.30566736591326
C           -0.13381049967101       -1.63477445510067       -0.02143983689534
N           -0.06905427529501       -3.01173941294352       -0.03848072141313
C            1.05181313019393       -0.84927844551581        0.08635732604545
C            2.26869623471739       -1.51587868411112        0.32104584349734
C            3.56468984721753       -1.06400833646099        0.28449997189135
C            4.01177498397972        0.23756429778263       -0.03533262331046
N            5.30857824140305        0.42011553785200       -0.34085221095693
N            3.31071370487433        1.37235486577711        0.01698213053228
C            2.02734652642553        1.50945890634682        0.14410087978472
C            0.94757829448559        0.59765132495410        0.06575330603324
H           -2.46480533829629        3.49795404701139        0.03646513356053
H           -0.94987380881806       -3.47665366436331       -0.20329955210069
H            0.71623446342146       -3.44943974010517       -0.48856847544984
H            2.17437118475549       -2.56872161801983        0.55621331189754
H            4.34296188076724       -1.79553035991555        0.46171801199146
H            5.96048202507967       -0.34261595436800       -0.36418915856229
H            5.62308213842323        1.35646409842857       -0.53093144579328
H            1.70785428041073        2.54016477952654        0.27286509305292
