28
 energy: -49.895793122983 gnorm: 0.000819331229 xtb: 6.6.1 (8d0f1dd)
N           -3.38071675291427       -2.37453049642418        0.71749058122969
C           -2.66971237493944       -1.28858392718348        0.31537971583032
C           -1.29870394393126       -1.48266041715318        0.03889450827727
C           -0.31482592536748       -0.52059577254601       -0.10308973557870
C           -0.55967290331671        0.93003345899377        0.07290155490098
N           -1.72919947960877        1.50854168757896       -0.13857857096043
C           -2.91971740051630        0.96773755494794       -0.28637924983840
N           -3.84305458081841        1.77990512088964       -0.85042989299649
N           -3.40331554996280       -0.20447147216720        0.13173434761603
N            0.41419286120872        1.76556354839359        0.40115704150300
C            1.69424745236831        1.39197829259563        0.37505120930569
N            2.59438196055651        2.33083795980723        0.76479924207294
C            2.06853405834180        0.13147108900864       -0.09216693460276
C            3.27726530540294       -0.55395708573541       -0.33479045392280
N            4.55480454883853       -0.05800253897805       -0.24951388406092
N            3.05321819547868       -1.84673971543658       -0.63712027526281
C            1.73143364535563       -2.03568589741865       -0.59866489999710
C            1.03902135366414       -0.85655792318023       -0.28636415539880
H           -4.33336641743954       -2.22348425182368        0.99911741184257
H           -2.90756500971424       -3.20377606430514        1.02726145923611
H           -0.96380300967613       -2.51314600279896        0.03394619111065
H           -4.80867409612668        1.50765978729288       -0.81434149905693
H           -3.59177170667631        2.73962583793044       -1.00608451668160
H            3.51249367728252        2.02883937947810        1.04193669615134
H            2.20657075004204        3.14509832324742        1.21278027432072
H            5.24401341391640       -0.69945239039377       -0.61487241542758
H            4.67652238299319        0.89456160490977       -0.55955375443150
H            1.32545716845916       -3.00535507412744       -0.82357573207830
