32
 energy: -59.172494900757 gnorm: 0.000828280229 xtb: 6.6.1 (8d0f1dd)
N           -4.51821031911250       -1.97357388260035       -0.50217422767694
C           -3.67241883303695       -1.20899055218839       -0.35636049501574
C           -2.67145642947548       -0.23997747281290       -0.15992657711471
C           -3.06900798493218        0.96633957801431        0.48998154047858
N           -4.14515922646285        0.96353634146242        1.29341124850980
N           -2.54026217269037        2.14199818803855        0.21410029688946
C           -1.36119604995311        2.44444966352707       -0.24927106188609
C           -0.17359260650601        1.69320387204309       -0.21821565849212
C            1.08078010557012        2.39094134523859       -0.20754122823647
N            1.12984527060354        3.76767774568839       -0.30291655789177
C            2.26977502591956        1.69186063907700       -0.12311193888298
C            2.25792300500429        0.31065051867591        0.01248289579006
C            3.30221881041954       -0.61305243860635        0.21666077355011
C            4.65579433763810       -0.29366133943594        0.31582223236088
N            5.76828581144933       -0.01038635419810        0.38992972720820
C            2.73069724932750       -1.89208633084617        0.33949940481452
C            1.35068009781986       -1.80464149897338        0.17389672304447
C            0.46854851543858       -2.86883584066547        0.34070774126775
N           -0.27298193101456       -3.74127021596324        0.47159455329425
C            1.01524086319965       -0.42252025060177       -0.04421926023850
C           -0.18552763905051        0.25195346710158       -0.22692938879365
C           -1.37190648085428       -0.50395983417325       -0.60559499487653
N           -1.18397727808275       -1.55129034095874       -1.41862597196760
H           -4.49382382498828        1.84164892045194        1.63752304082423
H           -4.69118604360470        0.12739061393355        1.41260085662867
H           -1.30495616194022        3.47540495153585       -0.58329816700515
H            2.03582729068868        4.16614287639536       -0.11181455290158
H            0.36501942074195        4.30416896102086        0.06833078079111
H            3.21143174344701        2.22238482171033       -0.12196961878989
H            3.27352942428126       -2.79827779389577        0.54049866006757
H           -1.93059853395514       -2.21320878004336       -1.56668370239992
H           -0.24985579488868       -1.84027658035205       -1.65960303055049
