33
 energy: -58.100961597640 gnorm: 0.000474594737 xtb: 6.6.1 (8d0f1dd)
N            5.40925887201258        2.19497682146414       -0.14326646182629
C            4.37697846669437        1.68855527532396       -0.08911925760106
C            3.14913855748470        1.02943330256428       -0.04027865820257
C            1.88037601311871        1.61834927170515        0.00577074767820
C            0.91490209518374        0.60338429011946        0.00641324800982
C            1.62237060103826       -0.65485428752798       -0.01587935016627
C            3.00041059623168       -0.38076966388525       -0.07188474067237
N            4.03967141355513       -1.28604178078668       -0.11575393865174
C            0.92079937991122       -1.86005105921733        0.06232988246667
N            1.56115625000560       -3.05886949508678        0.12628263348617
C           -0.48822596319517       -1.80025235329340        0.03756935556427
C           -1.16736679446825       -3.02573889187873        0.10458456754312
N           -1.66474909245080       -4.06273911165303        0.17573277857075
C           -1.22421345110373       -0.58478210073809       -0.01836957584028
C           -2.60822074666491       -0.69527433169467       -0.09232642420463
C           -3.62416017521142        0.27625734333710       -0.12037057882927
N           -4.89394042151024       -0.17911096778135       -0.25983692330991
N           -3.55738917068847        1.59649212789217       -0.02578412651941
C           -2.44875510858337        2.31920283678002        0.06153639315838
N           -2.69905150737661        3.65238177608354        0.13153871816784
C           -1.09907822388093        1.92961647730108        0.05725313392655
C           -0.49668379220980        0.67800945771055        0.01357909015760
H            1.71706649823340        2.67989744239605        0.02366397252541
H            3.88924436581679       -2.09730638136516       -0.69765813869527
H            4.94240970934796       -0.85590062448746       -0.26627951330298
H            2.49973764526809       -3.06196310900280        0.48949279666348
H            0.99830168548715       -3.87296870672523        0.32179453249373
H           -2.98163395399050       -1.71251766722425       -0.13905194834176
H           -5.64203439021605        0.48883448635316       -0.21524371973554
H           -5.09944041003003       -1.16082810809233       -0.24072612994203
H           -3.65677036169640        3.94481084812130        0.20517014808703
H           -1.96528262365052        4.31045775419050        0.31722199182405
H           -0.41035935886239        2.76271839279783        0.10341444011824
