30
 energy: -56.511685273347 gnorm: 0.000629101773 xtb: 6.6.1 (8d0f1dd)
N           -5.04792857558504       -2.51041168293937        0.81819070368626
C           -4.15406356843317       -1.83917700269283        0.56613699548666
C           -3.03758385204973       -1.02155686300554        0.24869510774631
C           -3.31297841557331        0.32508419278315        0.01511610102185
C           -2.37634057773653        1.32375408995731       -0.23126173011225
C           -2.91353608106260        2.61648963872254       -0.48091371976128
N           -3.36962246137433        3.64375294933089       -0.69952526460406
C           -0.98237237943122        1.24208494433967       -0.20025989726582
C           -0.11181526214702        0.15636946514839       -0.07274740202179
C           -0.52122634906191       -1.25833585036736       -0.10038479195995
C           -1.82046535868535       -1.69833798233350        0.14355156292176
C            0.47482922759879       -2.26579086432981       -0.28101952611180
N            0.11974336066596       -3.58178557163882       -0.45843214773614
C            1.83027148549224       -1.95327718153611       -0.20025338311980
C            2.22958249828359       -0.64873812297464       -0.00024845935354
C            3.52081532364162       -0.07736562965840        0.11898003681642
C            4.71962514567285       -0.79411184493489        0.11210835380919
N            5.69027731513604       -1.40891844249141        0.09935586635506
C            3.36611318853540        1.30721408787135        0.23582561173981
C            2.00178929117985        1.62807331815130        0.18582837021514
C            1.52673318140213        2.93745287400970        0.30066741381986
N            1.17216078681839        4.02654757963199        0.40517910410005
C            1.26026993503246        0.42204752790215        0.03910574885056
H           -4.35435494530067        0.62340289239648        0.04260216357809
H           -0.48942148616542        2.20270148293497       -0.29804150044073
H           -1.91354356243350       -2.76552968228127        0.31376095878384
H            0.87998314088838       -4.21447318668576       -0.64877723609206
H           -0.73236684447508       -3.79854324072850       -0.94748303037113
H            2.56815408602593       -2.73837975911976       -0.28982234684968
H            4.16297847894212        2.01912961383715        0.35096491377071
