33
 energy: -53.277386967260 gnorm: 0.000544352719 xtb: 6.6.1 (8d0f1dd)
N           -5.79758585786088        0.12448109735358       -0.21958146238443
C           -4.65049593380595        0.22542598296114       -0.16965163720932
C           -3.25456943061873        0.33754344515807       -0.09662178951825
C           -2.72875627125205        1.62805177165594       -0.26734205151759
C           -1.43897236371899        2.06980205225668       -0.19719288854708
C           -0.20862189694508        1.37592268855966       -0.04223666502096
C            0.93778774314133        2.15790436144885        0.00916517950271
C            2.23912788512497        1.64509981450304        0.08233685473256
N            3.31290564652046        2.50009541652801        0.16442591542105
C            2.38846394426359        0.26515690387157        0.06775254302907
C            3.53259176759404       -0.57329122659883        0.08569707352895
N            4.84559840346885       -0.15387172463092        0.22371087949936
C            3.10841497881000       -1.88305581595964       -0.11968979445975
C            1.71431944323620       -1.90597086316941       -0.22203977341220
N            0.97427904402869       -3.04827337114424       -0.45433689428835
C            1.22471413944794       -0.57961646479816       -0.05422503655415
C           -0.08119420108452       -0.07005651006062        0.01478757976574
C           -1.13958528672036       -0.96889737647027        0.23178943223631
C           -2.52137888267385       -0.83810791546280        0.20223798075422
N           -3.24974984296667       -1.97971591210844        0.41273472231492
H           -3.48029005004477        2.38968945960922       -0.44735700646063
H           -1.32040320711421        3.14166471067854       -0.30944192431333
H            0.82575238698521        3.23398045496757       -0.01920660589032
H            4.18027520099962        2.15278862668289       -0.21283456064811
H            3.11760781055070        3.46450289771145       -0.05733964761294
H            5.49372590089650       -0.91611898058879        0.36719278300659
H            4.97794262914177        0.58951260282760        0.89522735017781
H            3.74952719789264       -2.74379247561978       -0.19375907120936
H            1.52989710999935       -3.82689470686788       -0.78061044656159
H            0.13513479861455       -2.90663068689236       -0.99977030481253
H           -0.81376444449662       -1.96393163752388        0.50662706518629
H           -4.24231198950229       -1.89708744627901        0.55707128552566
H           -2.79009733030910       -2.77622328469824        0.81848916753811
