29
 energy: -51.203786634658 gnorm: 0.000417409135 xtb: 6.6.1 (8d0f1dd)
N            3.20205346753357       -2.65659437983561        0.03705882762521
C            2.60368050680339       -1.67514069874012        0.02065781498907
C            1.97087677650532       -0.40678122077198        0.00784512129803
C            2.83253986678853        0.70261883692454        0.14516208555707
N            4.14454209635850        0.45407172563468        0.37500055830053
C            2.44750124796326        2.04530031770762        0.02710746364551
C            1.19146482359880        2.55944303450411       -0.19186808876557
C           -0.06035381718313        1.93949711400569       -0.22968671538832
C           -1.07870583360663        2.87725633520089       -0.52590830899302
N           -1.80316828304257        3.71722952041195       -0.82436973942578
C           -0.41231589596826        0.57682577181059       -0.05838761870746
C            0.56603284928558       -0.51404175908244       -0.10426742799980
N            0.19871080477407       -1.78562605878224       -0.23173041388741
C           -1.07848189606088       -2.16432867066550       -0.21003319992719
N           -1.30474960030110       -3.47398727330290       -0.40493506215574
C           -2.09707180744529       -1.23071919736635        0.02965709006775
C           -3.47394299615740       -1.33524276030541        0.21614976684361
C           -3.97810946171152       -0.04294775703057        0.42375940485476
C           -2.94880561309272        0.87276009409018        0.34905402895047
C           -1.74012174891779        0.16868534458016        0.09903647124663
H            4.48446839522702       -0.49208744188643        0.39773663599919
H            4.80350787110480        1.21054146444259        0.40642368568504
H            3.25496144964201        2.76448279253440        0.08615049758816
H            1.15418416857036        3.63454646585845       -0.33205034608800
H           -0.51102120234535       -4.08095300103332       -0.51583256770934
H           -2.23002008442563       -3.85326701845324       -0.33011177234350
H           -4.05386241973204       -2.24083856102834        0.21523918512908
H           -5.00872914042658        0.19395742165949        0.61527251206359
H           -3.04931625053849        1.92967948321906        0.49575563244753
