30
 energy: -45.298312868043 gnorm: 0.000261577264 xtb: 6.6.1 (8d0f1dd)
N            2.56306017102470        1.73752244534498        1.01392126286605
C            2.12042088552697        0.58767012389528        0.43428980379998
C            3.03104135303146       -0.46556584197535        0.42785450198279
C            2.85617305403967       -1.75671706171843       -0.02958587271123
C            1.67956342338591       -2.36998807967903       -0.39535809009940
C            0.36503932147121       -1.90816247424272       -0.26952783719538
N           -0.59417054406384       -2.84128555877748       -0.53914801162429
C           -0.09174388526728       -0.58627917670127        0.03122642497705
C            0.75861495216899        0.58584325019359       -0.02760603716608
C            0.16514766544265        1.81888169702800       -0.40193190430067
N            0.98238474532867        2.94265527915763       -0.71106344426225
C           -1.20705554508559        1.98045216945767       -0.46427784118647
C           -2.04049642774391        0.95383747397470       -0.05968774297321
C           -3.42600680215565        0.87382252537382        0.11187758717319
C           -3.72305849218473       -0.41790821029803        0.52367317515345
C           -2.55482730467894       -1.18317142518031        0.56619363052541
C           -1.47295904971471       -0.36078745110507        0.20779870775609
H            2.02391772435270        2.58083915924238        0.88913150300650
H            3.53711117232270        1.81856084088847        1.24670485924941
H            4.02415220953035       -0.21519480252225        0.78309940782864
H            3.74967174658612       -2.36589685928601       -0.08723815194279
H            1.76876237030889       -3.39251406303009       -0.74547577043628
H           -0.29925043484411       -3.69079008189081       -0.99172278510217
H           -1.52302049876092       -2.49991273984099       -0.74623668039598
H            0.42686562550119        3.69112753052175       -1.10626137770123
H            1.74546367044717        2.71037592954117       -1.33598214403958
H           -1.61983401396700        2.93045462644013       -0.78042628854503
H           -4.12378666771115        1.68078559045604       -0.01867481514444
H           -4.70302796392944       -0.78143162021362        0.78294364139405
H           -2.50854774536107       -2.18587523875336        0.95310190661269
