27
 energy: -46.960399303863 gnorm: 0.000730233247 xtb: 6.6.1 (8d0f1dd)
N           -1.03267040428947       -3.89898858258653       -0.00279638295286
C           -0.57330366646440       -2.84444537416198       -0.00317370799724
C            0.03755739711594       -1.57715445374873        0.00026117163562
C            1.43004020405553       -1.55044182136651        0.00468101843801
C            2.06427495086640       -0.33030950026605        0.00844132241567
C            3.41971627315442        0.09183373720606        0.01506072158544
N            4.52586699131416       -0.67796599362911       -0.02288138698126
N            3.50793451575933        1.43927482183638        0.01786461935239
C            2.26706209877955        1.91651758326211        0.01321667225827
C            1.29405682296809        0.89335941450570        0.00762276454972
C           -0.10564661488175        0.89742596479511        0.00217164753301
C           -0.78028469286055        2.13630649555681       -0.00344857283047
C           -2.12768950172782        2.43079117495844       -0.00909998148016
N           -3.20752910391595        1.67369942920714       -0.00651458937866
C           -3.21496701844214        0.34209634091917        0.00088208108920
N           -4.46508889392616       -0.17352809801624        0.01759293869218
C           -2.14891648923444       -0.57805890693486       -0.00087532917737
C           -0.76837367440386       -0.39468463224883       -0.00000859353235
H            1.97694182608531       -2.48367281490504        0.00371580089132
H            4.45633056054099       -1.66292248590905        0.15914072455497
H            5.41168166591323       -0.22073386217350        0.10542236532263
H            2.11687595074038        2.98081129111383        0.01761528620516
H           -0.12702097969065        2.99827383830916       -0.00528302708726
H           -2.38130849252187        3.48807097838813       -0.01706022215361
H           -5.23773320194487        0.46793434913045       -0.00836096000938
H           -4.62988133146288       -1.16295032224256       -0.01659007739567
H           -2.47005685352654       -1.61426717959949       -0.00064867804728
