28
 energy: -51.478985856298 gnorm: 0.000980807612 xtb: 6.6.1 (8d0f1dd)
N           -5.13872730575672       -1.66519998321643       -0.46642439035477
C           -4.24561235976480       -0.96424197844054       -0.29983223146241
C           -3.15712974588801       -0.08056516869805       -0.10898799729310
C           -3.49078775673782        1.26657313039496        0.12577968095482
C           -2.63355490573101        2.31754925734577        0.32778513164396
C           -1.23287864030581        2.35024940755357        0.24248326399245
C           -0.29492474115590        1.36074937182679        0.02205556839441
C            1.07951763404588        1.75859940475223       -0.09925156537996
N            1.41060444919518        3.08729149496730       -0.21165440236150
C            2.12649562777832        0.82825298418459       -0.03751804345557
C            3.46230324246923        1.26163574847992       -0.13711933631654
N            4.53720731403346        1.65364180208782       -0.23703839319361
C            1.83490858608569       -0.53686129755807        0.08276493373570
N            2.62293581141266       -1.60077844694848        0.13958356525414
C            1.74436922607172       -2.64034241780924        0.15395976304424
N            2.17087737495513       -3.90450371918135        0.23673726865015
N            0.44149820947060       -2.31961481033086        0.09939618687235
C            0.44705675381626       -0.97503913854168        0.06330740575738
C           -0.62169773676659       -0.08303442292986       -0.00295927579550
C           -1.88888383488252       -0.65176586063774       -0.10228766412437
H           -4.55185469601165        1.48237059165977        0.17065368832067
H           -3.09714758871695        3.27111806529440        0.54557382095303
H           -0.82731898501030        3.34216636479466        0.40047325523010
H            0.78211942288328        3.70986798800485       -0.68770662823116
H            2.39049474274513        3.27824124380618       -0.35768707845861
H            1.50585337521495       -4.65135630576671        0.15735327507143
H            3.15730944013466       -4.08371997856297        0.19751324490017
H           -1.85538950668466       -1.73390701193432       -0.17986490524810
