24
 energy: -43.784587256806 gnorm: 0.000722081061 xtb: 6.6.1 (8d0f1dd)
N           -3.08868247291666       -2.72528843146004       -0.00061222644536
C           -2.61807496532276       -1.67922746813184       -0.00159138093146
C           -2.10157941115719       -0.35888810824970       -0.00123677435755
C           -3.04904909745726        0.66203410965856        0.00084753731134
C           -2.83278180815727        2.02569570202741        0.00019572369948
C           -1.59455693888809        2.68286451855106       -0.00272639914553
N           -0.37195363354918        2.23733295083884       -0.00257919063246
C            0.08072009556959        0.98049222481453       -0.00135812178789
C           -0.68175249826368       -0.28133170824025       -0.00253878484521
N           -0.09537538885053       -1.46863995617072       -0.00378547829717
C            1.23515265132665       -1.61543661857181       -0.00298966111341
N            1.67902781531848       -2.87768677214002       -0.00476444506672
C            2.07830129496914       -0.49333205142512       -0.00029958435689
C            3.45104230865004       -0.25066799249160        0.00111966330168
N            3.71574847856784        1.07020081766950        0.00263338241931
C            2.55866390678481        1.71416405697641        0.00218687438285
C            1.46540532497685        0.81339655608436        0.00039069160144
H           -4.08136699037078        0.33019808945582        0.00259824513213
H           -3.70793276430219        2.66102912216612        0.00147408041006
H           -1.63675831418335        3.77014891836827       -0.00489142807456
H            1.00098568683560       -3.62109359837370       -0.00650131839036
H            2.66201935943463       -3.08077460824307       -0.00391066028812
H            4.25807095876775       -0.96102823753382        0.00106164740825
H            2.51359953981753        2.78597838392080        0.00307450186616
