27
 energy: -46.966757088885 gnorm: 0.000748879892 xtb: 6.6.1 (8d0f1dd)
N           -5.42737889414073       -0.60846703247871        0.22089620971194
C           -4.35078369082644       -0.20260904306877        0.21934440211185
C           -3.06230028797487        0.32890928346731        0.21854796879249
C           -2.73497417734804        1.69419645757979        0.41698459526884
C           -1.37231506952796        1.87359036974568        0.31972537320497
C           -0.77491242210379        0.61522038400451        0.07511181249408
C           -1.85914114407370       -0.36604553382503        0.03471043382069
N           -1.65422206148882       -1.66173962246587       -0.18546002283490
C           -0.42526239216202       -2.06369664546175       -0.33137750826220
C            0.73290498554725       -1.23436123878413       -0.28804134324823
C            1.98247756581047       -1.88477399141594       -0.37233722773885
C            3.22910599047633       -1.41915319634190       -0.05204754420924
C            3.54617916244626       -0.08566142502436        0.30159494184464
N            4.72251879453586        0.16234878729457        0.91542402594981
N            2.85787670105444        0.98886169796068       -0.04122450006857
C            1.60784178451540        1.10945426428107       -0.40330365254292
N            1.28667805817800        2.25179145256340       -1.02419146645751
C            0.52350324307780        0.17212475490238       -0.14571066735082
H           -3.45923613191321        2.46580219921769        0.61046890791532
H           -0.85896474828479        2.80434674290323        0.48908655059093
H           -0.29397516656609       -3.12947410357228       -0.46961172894251
H            1.92097976228656       -2.94036462595540       -0.61108437030201
H            4.04546281950097       -2.12855090399770       -0.02310378797217
H            4.95547687029558        1.10862897389577        1.15806547373522
H            5.32688315324561       -0.58708722412532        1.19747221988691
H            0.33374704708095        2.42661045496127       -1.29542762784885
H            2.00733583645873        2.92221100833964       -1.22911885024934
