34
 energy: -57.803392472435 gnorm: 0.000775191689 xtb: 6.6.1 (8d0f1dd)
N           -5.02321768000644        1.72603816831224        0.18170349619363
C           -3.95853552237870        1.28561630103049        0.12042862428780
C           -2.66255441446190        0.76039229797854        0.02526840323131
C           -1.63699105424365        1.69118344325130       -0.29145281756190
N           -2.04168824979473        2.97972030901133       -0.51786769791409
C           -0.27382116023555        1.46241953899264       -0.30399489604321
C            0.50059750998820        0.30472658092790       -0.09607496017409
C           -0.00248200117775       -1.05329252646532       -0.13316603982380
C            0.91460609023945       -2.09890735155335       -0.30002935677576
C            2.28686770557154       -1.91625603478596       -0.32952547032963
C            2.79034928634154       -0.65174267920979       -0.12721341158739
C            4.12612934915754       -0.14851099160353       -0.02730056693811
N            5.25418992138799       -0.90142532629847       -0.10038457082196
C            4.05064472965828        1.21436239070280        0.24345441151656
C            2.70518975736304        1.59769374835889        0.30064697431555
N            2.27853983333240        2.86488812449219        0.59243345401786
C            1.89004676676328        0.45354218329510        0.03064661717754
C           -1.37573846751951       -1.41843266148809        0.01645737756357
C           -1.63640321817460       -2.80251170207208        0.05695248907584
N           -1.92258603634554       -3.91905585694836        0.08398781082811
C           -2.53937909690869       -0.63678912965606        0.19419879432296
N           -3.68028582783003       -1.29385094360033        0.53436771620929
H           -1.38371709243316        3.62731445952220       -0.91457431094561
H           -3.01957784228248        3.16695630377090       -0.66082241908971
H            0.30739261739132        2.33676909692885       -0.56618161805758
H            0.53185401993049       -3.10294246562503       -0.40325012605120
H            2.93385268615383       -2.77064281611078       -0.47123665600652
H            6.13549847909158       -0.43126688054953       -0.21574234265680
H            5.18114864014202       -1.82838522233176       -0.48238151272799
H            4.88748913156827        1.86884926192329        0.40750474169800
H            1.37354467938051        2.93783446468371        1.03430122360128
H            2.98442980386500        3.47147563742141        0.98368636422016
H           -4.55472936789609       -0.79758437859649        0.54714555484646
H           -3.69437879623610       -2.29910251351027        0.55528503049999
