33
 energy: -58.092095597141 gnorm: 0.000442659923 xtb: 6.6.1 (8d0f1dd)
N            5.50624799082306       -1.17855072209842        0.40927081815622
C            4.40581911533898       -0.85413325733862        0.30493123447982
C            3.07840136824839       -0.45667172285931        0.17871685633559
C            2.63693849795000        0.86799660505837       -0.03787856294856
N            3.46154395387821        1.96128879875545       -0.15413342478740
C            1.22752729466534        0.85123987171491       -0.06354401642779
C            0.29183290190929        1.87796778996587       -0.15447441807378
N            0.64948880380260        3.19114760820899       -0.24361576564710
C           -1.07598245811063        1.51916436744815       -0.13402767581223
C           -2.03420297475293        2.54608663218694       -0.12868710683931
N           -2.76678063746347        3.43331514861640       -0.12246084709365
C           -1.53009378462960        0.18643367061351       -0.03681541495893
N           -2.82905737444578        0.06928416701015        0.19180442176752
C           -3.63750986559818       -0.96679468877755        0.19259273576025
N           -4.85825651809460       -0.70659791382061        0.72627179281782
C           -3.40192834051613       -2.25683873674296       -0.33743668083846
C           -2.16045397576205       -2.77750173853422       -0.62923194756232
C           -0.90627881802268       -2.21041314430837       -0.44952472273964
C           -0.55313326065234       -0.89760838884256       -0.09866635997356
C            0.79264857867082       -0.52834453105759        0.04254629858691
C            1.95407296170121       -1.31404150403613        0.23540847570285
N            2.03638830820187       -2.66325936305760        0.43404910833502
H            3.16505901966127        2.67084715272414       -0.80768099570529
H            4.44264937327986        1.73048846668719       -0.23051433231979
H           -0.09718516086854        3.86352216603197       -0.14630686720040
H            1.53514781435257        3.45666963537416        0.15442180714695
H           -5.05854284763739        0.25040764573838        0.96196144612076
H           -5.62251792255177       -1.34262270560021        0.58789286691560
H           -4.26709840589298       -2.88956312618563       -0.48136450502071
H           -2.15517686753762       -3.79166433639464       -1.01192351137270
H           -0.07451597854708       -2.84646742917139       -0.72007599772011
H            2.93539110045578       -3.00007860512657        0.74544843616186
H            1.23899717694195       -3.11517409678209        0.85341138305674
