30
 energy: -55.722204930272 gnorm: 0.000557944953 xtb: 6.6.1 (8d0f1dd)
N            5.56266328823873        0.95527993183992        0.78614013183124
C            4.48124299143709        0.61195814413310        0.60899674705924
C            3.16767169702804        0.17367946543295        0.39662990826708
C            2.79985157571607       -1.14992927063102        0.07297462541240
C            1.41183850897103       -1.19500156156069       -0.00965834666821
C            0.53131216259709       -2.25716003419144       -0.29197511692918
N            0.97593863046323       -3.48065125620708       -0.61866692516289
C           -0.85215021558947       -2.00921790854019       -0.15418541505114
C           -1.74034243110516       -3.09170773657510       -0.29209267687256
N           -2.40530131309892       -4.01656564529097       -0.44297306962422
C           -1.36741594899091       -0.74575324502286        0.20342287789495
N           -2.60174505763266       -0.72824454620640        0.65733335449854
C           -3.42417085498559        0.25722703527660        0.88950640719532
C           -3.39068235424824        1.55225888159239        0.40030140868082
C           -2.28814042919608        2.20069221507020       -0.16820060901505
N           -2.49467251460155        3.43706727059509       -0.67448116558838
C           -0.94604399473650        1.70608675362113       -0.14994516101216
C            0.00005140998705        2.64966625043199       -0.61398016084755
N            0.66978170318133        3.47835084528298       -1.04539291386624
C           -0.46592022426105        0.42106555335748        0.15011011819234
C            0.90641018251304        0.13868522041545        0.22443473402885
C            2.01907515160646        0.96269239676977        0.47951182861037
H            3.49199923786075       -1.96005021419069       -0.06828637245768
H            0.32291174642652       -4.23643380635207       -0.74498312925347
H            1.96154177622978       -3.67230139150563       -0.63193611103812
H           -4.29909831244313       -0.04204420678712        1.45796307310205
H           -4.30106766984420        2.13229519756954        0.47588712969112
H           -1.72955245519711        3.99133849905624       -1.02002989491863
H           -3.41269093078695        3.84287005917928       -0.64406925638331
H            2.00620538135835        2.00120921043312        0.74847588692317
