28
 energy: -52.282265780738 gnorm: 0.000492977317 xtb: 6.6.1 (8d0f1dd)
N            5.20151122636940        2.77962406192032        0.00252905534562
C            4.27830026771401        2.09720060593137        0.00298140688704
C            3.13735818431561        1.26904019440601        0.00187385850752
C            3.34849086281965       -0.12311568253540        0.00053417449482
C            2.41268809781310       -1.12153322449974       -0.00022352496920
C            0.99444888659767       -1.04757582427260        0.00007340058529
C            0.28604339847023       -2.26980593346973       -0.00093169239694
C            0.98861489893771       -3.49589900147744       -0.00199526894778
N            1.51800164001031       -4.51439855678822       -0.00351532841515
C           -1.11513743442316       -2.36268421906205       -0.00079581898714
C           -1.84936019674637       -1.20380664524681        0.00039297884691
C           -3.23988153786644       -0.94130238021942        0.00089846855957
C           -3.42732500410441        0.43447448398543        0.00229167756898
C           -4.64438309537532        1.12522600303720        0.00340530417852
N           -5.61909457430685        1.73297273352125        0.00351515666260
C           -2.14833314581216        1.08390332683304        0.00262519212163
N           -1.89456738305995        2.38845962799868        0.00383109718120
C           -1.15860224364034        0.06445449076843        0.00146533449026
C            0.22863487346846        0.18952327444102        0.00135053090176
N            0.67569135879877        1.46675617671653        0.00251379898202
C            1.89499501574087        1.92314473937611        0.00274783827832
H            4.38670983502435       -0.43312713205956        0.00010652644707
H            2.80699467575407       -2.13063216362342       -0.00118512546463
H           -1.58197690012061       -3.33678239082468       -0.00159197348778
H           -4.01947730163343       -1.68002463056627        0.00036731981640
H           -2.63514110286234        3.06967431464605        0.00465879422661
H           -0.91002530461123        2.63843131523936        0.00390232586517
H            1.93981423072860        3.01140289202457        0.00383807972134
