28
 energy: -52.273141002560 gnorm: 0.000613378784 xtb: 6.6.1 (8d0f1dd)
N            6.10092577083104        1.64891714535833        0.00021984853322
C            5.09562546638274        1.09470619647124       -0.00023781833069
C            3.85967669802693        0.43168439805729        0.00012895628964
C            3.67205470153832       -0.95218749455594        0.00010275534611
C            2.28539632809443       -1.18631593823806        0.00021542127470
C            1.51747343648626       -2.33504142063863        0.00024246492229
N            0.19752916306227       -2.29638679933632        0.00014806780246
C           -0.46791916468107       -1.14181974004211        0.00022108558846
C           -1.87127246383376       -1.33238311680971       -0.00023932057481
C           -2.27609862699306       -2.69619384081263       -0.00202911493567
N           -2.67766716964024       -3.76922641830936       -0.00007082500536
C           -2.91852944695069       -0.42054667754260       -0.00025025485462
C           -2.88925565631929        0.96591728932536        0.00044522278708
C           -4.15312832546343        1.60143840411195        0.00048193428249
N           -5.16952052628431        2.13521041793886        0.00037719558985
C           -1.75026867182096        1.82105553437099        0.00109293574851
N           -1.98232935179302        3.15343696498732        0.00180814850694
C           -0.41571533989584        1.40965833271326        0.00097200704734
C            0.19927187440359        0.16029460270334        0.00052791869723
C            1.61162894666384        0.09721912653239        0.00038587691176
C            2.60519387322481        1.07921690484800        0.00036451967297
H            4.44449037447399       -1.69752425145099       -0.00006724017349
H            1.95398080409815       -3.32555028052679        0.00028237204776
H           -3.91069089629774       -0.86032478781348       -0.00078192376512
H           -1.21822217926583        3.80514904846807        0.00222728575376
H           -2.92276970854796        3.51060373961411        0.00185883846278
H            0.28405224491236        2.23792493591325        0.00130506448870
H            2.48234387408848        2.14681776156282        0.00039938928572
