29
 energy: -45.594902280121 gnorm: 0.000686443876 xtb: 6.6.1 (8d0f1dd)
N           -4.40138422244947        1.29639034805524        0.19107561229545
C           -3.32276382616407        0.46106720803330        0.06203246413847
C           -3.60324577756814       -0.91050901220931       -0.12731586331144
C           -2.67366574127313       -1.92371023206192       -0.21667224383398
C           -1.29216562396486       -1.84716787377971       -0.14762012327305
C           -0.44968751580147       -0.73180296705183       -0.03913798008320
C           -0.91792500259535        0.66080156728051       -0.03060292456155
C            0.02026405715265        1.68725939926139       -0.10858688478454
C            1.39990346136207        1.48692898772559       -0.11811629661613
N            2.25425753067901        2.55488583542501       -0.20494448654106
C            1.87169397486830        0.17915081586859        0.01693092127313
C            3.16887744301354       -0.36074606500152        0.11204529731160
N            4.36147836580543        0.35035632078892        0.14736194053354
C            3.04911993825874       -1.76120278434769        0.13825782058292
C            1.71249194643967       -2.10337588611428        0.08235645856738
C            0.93805874587093       -0.92051070147958        0.01938973323935
N           -2.17714559756000        1.10153202591161        0.06443074349817
H           -5.29396662045232        0.91801714831690        0.45342321721721
H           -4.19504081258756        2.24342014060954        0.45916292606339
H           -4.64986685832130       -1.17962840675226       -0.18733608275343
H           -3.07847501224796       -2.92191376439951       -0.34162954873614
H           -0.77828727806383       -2.79685326074675       -0.21206522254997
H           -0.36479350815824        2.69526605145720       -0.16068440771381
H            3.16956559202377        2.36489660034316       -0.57991966833803
H            1.84260981116009        3.42864139001069       -0.49293454266872
H            4.33025606083694        1.18849823764832        0.71192024884899
H            5.15703320719846       -0.22910358053163        0.37915568801993
H            3.87574354251348       -2.44699978566437        0.20467145734196
H            1.33954150372457       -3.11094366339561        0.10464779803354
