31
 energy: -53.846995485070 gnorm: 0.000900162503 xtb: 6.6.1 (8d0f1dd)
N           -4.68152499537158        2.31879603962831        0.19166762802581
C           -3.73983773499358        1.65717901606512        0.13863724110738
C           -2.60322047696987        0.85770022488230        0.07676825477954
C           -2.59408940866947       -0.54137052775364       -0.11669591032356
N           -3.71061592451262       -1.32956596453151       -0.25852522659993
C           -1.25240305973364       -0.96367209538153       -0.07328302289752
C           -0.64096780920732       -2.21498045191475       -0.07939052664971
N           -1.33805702857722       -3.38517696830285       -0.16711904137284
N            0.68478679735944       -2.34337206211673       -0.00147529478783
C            1.49057573671417       -1.28727373264675        0.05543178319940
C            2.84977160541600       -1.62566652570074        0.21482370894626
C            3.96981356061791       -0.82515383454846        0.30856720397654
N            4.15348292754717        0.46478280188211        0.12556374450868
C            3.19190511855799        1.34779699621357       -0.15355328377319
N            3.69194340486175        2.59437258116202       -0.39309977954508
C            1.80030047173160        1.21154474549379       -0.14579601972090
C            0.98993288045573        0.08416727684984        0.02434216164940
C           -0.40908571886811        0.20787853138465        0.06697515987626
C           -1.26947793857248        1.31927686004717        0.20394729422623
N           -0.93741964464447        2.63492169418669        0.41132096909494
H           -3.60966373319959       -2.13412221667113       -0.85878698225137
H           -4.56743155606977       -0.81588765785285       -0.40938293768023
H           -2.27651082955611       -3.39836239226671        0.19626236110767
H           -0.78149245723397       -4.20903910050539        0.00144544436351
H            3.01239182938307       -2.69124356874973        0.30925894261140
H            4.90364769516339       -1.33817431579461        0.52765695012090
H            4.68906491174318        2.65949448751863       -0.50502420271347
H            3.11513082119582        3.30248163054749       -0.81066777445274
H            1.26920025256111        2.12894100652813       -0.36364135880135
H           -0.10581585478604        2.80378688040667        0.95761454214843
H           -1.71909382584158        3.22582116514055        0.65873542542720
