29
 energy: -51.196944535186 gnorm: 0.000742889785 xtb: 6.6.1 (8d0f1dd)
N           -5.44611959492772        0.67474262886670       -0.41070038677928
C           -4.34120449422240        0.38529171853676       -0.27033316820816
C           -3.00061757408388        0.03752153024699       -0.11385566504940
C           -2.50820099912399       -1.27669694864531        0.06431652954116
N           -3.26213805185870       -2.38588386842238        0.17340050709201
C           -1.09230813425838       -1.20033454492057        0.12009285763765
C           -0.11939767307826       -2.16774530921561        0.25775925825446
C            1.21112465915823       -1.78940503746648        0.21960412620401
C            1.62056903670883       -0.45572630304800        0.10110809834162
C            3.01160047411847       -0.20542612085728       -0.12389946116197
C            3.85419929448410       -1.32394520217800       -0.29206713136171
N            4.58656064870097       -2.20000815191891       -0.42850799220257
C            3.67228594851276        1.01371959378647       -0.33705358525540
N            3.32012251621471        2.24080591821251       -0.05957687632950
C            2.12828420424071        2.61008244175969        0.40570342551719
C            0.92479516507404        1.95756003829421        0.40998477220176
C            0.62181028941036        0.59171519147142        0.12457047102010
C           -0.70933842315280        0.19153064922111        0.02351541179053
C           -1.91370852881130        0.93981820775788       -0.15573178958444
N           -2.04783719027056        2.27109059085389       -0.35738439738240
H           -2.82944951872932       -3.29131466279221        0.19995322501109
H           -4.25800997277755       -2.32646218858459        0.05038571201798
H           -0.37461440417392       -3.21220750832293        0.36507363493052
H            1.97238812642956       -2.55279744101423        0.27500179819018
H            4.68351707720892        0.93739965444508       -0.73055262797842
H            2.13173858255354        3.63570896557755        0.76510110252875
H            0.08493353466733        2.53773291197911        0.76845917322167
H           -1.25875734547778        2.79003347103752       -0.70748712784606
H           -2.96259099833636        2.60182601803861       -0.62462261036188
