28
 energy: -47.473794689263 gnorm: 0.000502035238 xtb: 6.6.1 (8d0f1dd)
N           -4.32269976934977        1.62159939356919       -0.47525516933311
C           -3.20503776591902        1.38698602994100       -0.34721828701532
C           -1.82379513306742        1.15099015831594       -0.20221942214551
C           -0.97523006849994        2.26453901728854       -0.30016306564334
C            0.36152489889683        2.09410601600179       -0.06996757283727
C            1.42251858625545        3.02945876677001        0.01267559173109
C            2.56733685241880        2.35151333079103        0.34344223556332
C            2.29421516174726        0.96203354206385        0.44645749961689
N            3.20331873536610        0.09350499159783        0.94035266584192
C            0.91216115523351        0.76403997429256        0.15156545118189
C            0.09551923299001       -0.36460563461554        0.03802039817307
C            0.66172760112607       -1.65429853368347       -0.22572812640885
C            1.91857260469046       -1.66024711364729       -0.85798359974871
N            2.93387423735818       -1.71227414989709       -1.39870534636526
C            0.15577861665426       -2.93814529187882       -0.00841584163463
C           -1.08151728116827       -3.31387262150843        0.46443336865882
C           -2.19335828545070       -2.48233238122225        0.61402849589770
C           -2.30855138149255       -1.14361210525867        0.33528107900731
C           -1.34017310767960       -0.15363363648852        0.03849567839328
H           -1.39563532302849        3.23928767315175       -0.50082977864831
H            1.32390914579257        4.08832755828630       -0.13654747163363
H            3.53626415713061        2.78358994284032        0.51598364582520
H            3.06842193635269       -0.89943509835379        0.87171676468138
H            4.15515558207884        0.41276573216579        1.00513590804580
H            0.85181866775522       -3.74001718572921       -0.23148444662450
H           -1.22921546704230       -4.36599457349951        0.66517675384567
H           -3.10495290727688       -2.97420296739321        0.92955057464446
H           -3.31368403017276       -0.74567816529753        0.41984906583173
