28
 energy: -50.672156063177 gnorm: 0.000409403551 xtb: 6.6.1 (8d0f1dd)
N           -4.74554369614279        0.82215110472905        0.36494919835842
C           -3.67054443802625        0.41871927953178        0.27817973534031
C           -2.36638568278388       -0.08949678480719        0.15396774634357
C           -2.27056415627542       -1.46340066289457       -0.20283754545740
N           -3.34653603253597       -2.07332061140551       -0.73750018338787
N           -1.24949821968685       -2.26455230247074        0.05544638151014
C           -0.01651060673411       -1.93866968955340        0.32431510499882
C            0.68162249620854       -0.73260596828217        0.12855680388833
C            0.07782741076538        0.57655631472382        0.01020528239722
C            0.94017224202263        1.66294973387153       -0.28461529329488
N            0.44770896983121        2.95583966474223       -0.52412144805375
N            2.26194338880474        1.59622086413702       -0.34604643955194
C            2.84956730194978        0.44315580330998       -0.12998820514245
N            4.16746059367268        0.20588539393078       -0.11424626943912
C            4.28357890753696       -1.10825794519527        0.07542799132746
C            3.05699521133810       -1.78190664080797        0.19899404788554
C            2.08469812438388       -0.79874559311594        0.08585406282808
C           -1.30060842410249        0.81820695690355        0.34120716339914
N           -1.62393819818828        2.02666861514109        0.82801234900476
H           -3.30712644596095       -3.07002375744504       -0.86328079064641
H           -4.22539186003121       -1.59236353612013       -0.82467526174893
H            0.58527238406418       -2.78653609509771        0.63513678061851
H            1.22298464576207        3.55285773784388       -0.78807441873981
H           -0.30256984373473        3.00305100331384       -1.20199401682166
H            5.26231278910670       -1.55378611004053        0.12407065367093
H            2.93292816198465       -2.83798920204927        0.34442922927030
H           -2.58324857261296        2.24601275433864        1.04081340738611
H           -0.91164270451612        2.74047150756944        0.88953212955661
