28
 energy: -46.674791461150 gnorm: 0.000512268657 xtb: 6.6.1 (8d0f1dd)
N            4.23372553494157       -1.93820403984580        0.08575931703226
C            3.22798998682732       -1.38323694346058        0.03636067692977
C            1.98976938772259       -0.71655305089833       -0.00262473142140
C            0.80038416015337       -1.44429212338832        0.06287279025988
N            0.87612150893229       -2.83048286531188        0.10326332569019
C           -0.47593372540334       -0.79320397947031        0.01429477733369
C           -1.60388033718260       -1.60130837626400       -0.14159667049065
C           -2.95783739075182       -1.32528807561316       -0.16855474675900
C           -3.63054763374393       -0.11427891488202        0.00612915892456
N           -4.98593377038127       -0.14134741432547        0.01655683305063
C           -3.01622954813223        1.14911756990497        0.17174092124341
C           -1.68973297257883        1.45624749172087        0.15885051615264
C           -0.52487769692164        0.65932859263456        0.05777535591729
C            0.67620218644595        1.35724988120959        0.00248069733182
N            0.84990766053858        2.70228997922921       -0.00150503169685
C            2.16261334028740        2.89340881751974       -0.08033383821085
C            2.90565601632668        1.70119378099580       -0.12329470908007
C            1.96070091894439        0.68854587796266       -0.06792327528340
H            1.81805812701255       -3.18270437196095        0.20302764206748
H            0.21674469226599       -3.30617479549934        0.69769801333864
H           -1.38396993946026       -2.64881116158322       -0.30567000139652
H           -3.60140195794602       -2.18263480226269       -0.33158130450289
H           -5.50955929600670        0.71424622616233        0.06148032231638
H           -5.47990660307278       -0.99270645084700       -0.18323406638549
H           -3.70351737731231        1.97939497174931        0.28446178240404
H           -1.43680191336379        2.50764997928650        0.23814302342526
H            2.55702838387143        3.89467141551464       -0.10431678681439
H            3.97248087128700        1.60530324292320       -0.18075015297679
