30
 energy: -50.118871398877 gnorm: 0.000638830418 xtb: 6.6.1 (8d0f1dd)
N           -1.80891356422361       -3.73276806795011        0.40551383347833
C           -1.16431600611051       -2.78520768894452        0.31247638476689
C           -0.33666599817401       -1.65337546626374        0.21519856734598
C            1.05248856541994       -1.81985494796096        0.22973543569924
C            1.85340558998817       -0.72202432635370        0.05355195705771
C            3.27144183722080       -0.57757110260640       -0.03416960315324
N            4.16905481390642       -1.60267525004234       -0.01823181302315
C            3.55479237678376        0.77080245971975       -0.22573924726803
C            2.35729122714431        1.50050048626027       -0.24004047231049
N            2.27960058388593        2.85537073913531       -0.42092774934337
C            1.27327446088883        0.60132269812030       -0.03898487888572
C           -0.10143700699823        0.80647107203878        0.10479132669212
C           -0.61478207617652        2.07533398993289        0.45065605346053
C           -1.92518574823174        2.49238142677277        0.59990969356910
C           -3.09552605279621        1.82934536488084        0.28371200340259
C           -3.16889320855272        0.51693424363893       -0.22819444696441
N           -4.33857044905008        0.10812887756116       -0.79118689851644
N           -2.24677405503181       -0.42065156561838       -0.18676790830543
C           -0.94752044324020       -0.38346127527221        0.05909530431358
H            1.45804264979624       -2.81746862299868        0.33368912190520
H            3.85572132904293       -2.48759126850139        0.34294369325713
H            5.13506542238602       -1.37345030033639        0.14427707305039
H            4.53553710831261        1.19241992635909       -0.35401806096176
H            3.11261353887623        3.28872363812382       -0.78951207842168
H            1.41592803498427        3.20594027073212       -0.80644034755430
H            0.13478967214055        2.79704773243629        0.74661744471037
H           -2.04845907696689        3.50223696732004        0.97533884402687
H           -4.02946015047525        2.36309266749836        0.39752808238779
H           -4.42447632614260       -0.87482766225901       -0.98650852327324
H           -5.17662397020711        0.64356476527606       -0.65122402084075
