30
 energy: -50.917429971318 gnorm: 0.000400322793 xtb: 6.6.1 (8d0f1dd)
N           -5.29700073591022       -1.93923800930713        0.24472325683179
C           -4.25584679010708       -1.46573636501219        0.13077811700445
C           -2.97085956761515       -0.90528684293749        0.00048034735284
C           -1.93156435139526       -1.79047325433430       -0.36382249426189
C           -0.59278224709205       -1.55646412457266       -0.41805251672222
C            0.17981966542123       -0.38295294132023       -0.13675486642498
C           -0.34668452584014        0.96340889554510       -0.10140721174123
C            0.54283388429848        2.03767860357767       -0.18268073955026
C            1.92138824842025        1.88203936560208       -0.20246201981981
C            2.44518517307512        0.61813025069620       -0.07602468899101
C            3.78579907381264        0.13201843847392       -0.00996789491219
N            4.90036664295042        0.90015722852154       -0.02890430678849
C            3.73328958819962       -1.25283699425441        0.15806269288533
C            2.40108819382620       -1.66946444936372        0.17903685451080
N            2.00147731574205       -2.95819898809031        0.36645554885609
C            1.55911974987411       -0.51912475665552       -0.00842182941475
C           -1.73831717807687        1.28383312233623        0.06343393238716
C           -2.05944166381015        2.65270708494315        0.21629660979776
N           -2.38320917579514        3.74878384553181        0.33985765143816
C           -2.85629021227964        0.47031210501242        0.17942101028034
H           -2.25817159079400       -2.79330380016767       -0.61698079018504
H            0.00377529519658       -2.38638020039848       -0.77208572619930
H            0.13729090043083        3.03705677215796       -0.22687709488446
H            2.55389415956822        2.75473342808088       -0.28149100355233
H            5.79460282423653        0.45646109457349       -0.14490373212206
H            4.82073185433923        1.86150454008650       -0.30969884514690
H            4.58419299399594       -1.89921280320438        0.27477064560749
H            1.08325753400930       -3.10735652709285        0.75574708275001
H            2.71361880798451       -3.59598099560030        0.68760699032314
H           -3.78375708196373        0.98983053147128        0.40026684319000
