28
 energy: -50.710144538210 gnorm: 0.000899176465 xtb: 6.6.1 (8d0f1dd)
N           -2.65299656160031        3.79415570459695        0.46978776432012
C           -1.98127615695738        2.86975100597912        0.35195481625344
C           -1.15228300618105        1.74278915015295        0.20292091708084
C            0.22363707435937        1.89869533834290        0.09915856740861
C            1.10118360756821        0.81251331113333       -0.00407795073661
C            2.49941035656423        1.06395774370670       -0.24532845801186
N            2.85012877578356        2.16834937627824       -0.92613000973845
N            3.50996826109340        0.36031858761247        0.22988279387575
C            3.47797867571091       -0.86940280563561        0.67560265955303
N            2.65624547944705       -1.84614348113535        0.39888295843513
C            1.41017243793727       -1.71994184672290       -0.05599141494663
N            0.81491709748287       -2.83452534836570       -0.45950784978562
C            0.58619239500206       -0.52712644674774       -0.00332666254144
C           -0.79979114219371       -0.67765464739697       -0.01984285557282
N           -1.50893907533541       -1.82315118389821       -0.12557057542516
C           -2.80688852859169       -1.46747077754011       -0.04882182528538
N           -3.79047107023488       -2.39992785283120       -0.19166152208031
C           -2.98187947295200       -0.08049693197631        0.09878601199098
C           -1.70180887763618        0.45264486686296        0.11593228083053
H            0.62841970975754        2.90015918547958        0.15448101843542
H            3.82883453600615        2.36434705979605       -1.04784217616525
H            2.16081475594910        2.79575926215914       -1.29906580261489
H            4.34492899037182       -1.15884944579438        1.26391319456490
H           -0.22548437601018       -2.79648571865349       -0.49585806346247
H            1.33382728269121       -3.69521359849022       -0.39068720366379
H           -3.51949515809137       -3.35962328361808       -0.05689878876859
H           -4.71069095145366       -2.14668089804023        0.12482184580651
H           -3.91469863348731        0.44198135924439        0.17467840774916
