23
 energy: -39.267690059762 gnorm: 0.000696913351 xtb: 6.6.1 (8d0f1dd)
N            2.54658883110642        2.31522280494616       -0.40010953320790
C            1.55922394555974        1.41928310124785       -0.20731317803342
C            0.21908349397397        1.84082760634085       -0.20929847833259
C           -0.80804404907808        0.94745879296966        0.02187836622749
N           -1.97287871500665        1.34731136795801        0.51190599065296
C           -3.08163487905622        0.67611312596332        0.65849762186681
N           -3.54551142786793       -0.35140623956672       -0.03581570325927
C           -2.72691657688365       -1.12831987269039       -0.71769149323610
N           -1.44615598949498       -1.33395884342494       -0.54393937768702
C           -0.52740351528953       -0.52630700453411       -0.06407708771199
C            0.78933911738676       -0.91001648471159        0.15891269797453
C            1.39665756932964       -2.17225843447210        0.34049138677058
C            2.76702453210467       -1.98817760793493        0.36119683274830
C            3.05500609295853       -0.62966850229846        0.17402162161201
C            1.84800456517765        0.06616630346767        0.06415449109321
H            3.50517286573111        2.03627320066147       -0.29627332507759
H            2.33168669497140        3.28688965133805       -0.53468734235680
H           -0.00924146979257        2.89357002944902       -0.28321378261443
H           -3.78762233257621        1.11504539665571        1.35884400125477
H           -3.20238069591823       -1.79868496868353       -1.42930029536861
H            0.86922912970242       -3.09981085749626        0.45672141076522
H            3.50247778124919       -2.76140633256112        0.49025040950926
H            4.04493498191290       -0.21224380272369        0.11344283741026
