33
 energy: -57.296875380542 gnorm: 0.000739511466 xtb: 6.6.1 (8d0f1dd)
N           -0.22127911517980        4.26040267435075        0.10680033243069
C           -0.01886616814800        3.12533250157379        0.10376854492386
C            0.31482915363147        1.76453759043269        0.08808817667575
C            1.69457969164694        1.45652993015339        0.11986066974134
N            2.62626320354094        2.44802727776462        0.23175148989639
C            2.04483365856528        0.11477603925388        0.04476097415173
C            3.27407138533744       -0.57966420235435        0.01281774253191
N            4.53991653308795       -0.05396191786480        0.11466490632658
N            3.09246174651671       -1.89155941825953       -0.19819198375784
C            1.76702005062888       -2.10148007723830       -0.26713622439367
N            1.29861050440165       -3.37101142006129       -0.48639143168921
C            1.02958719109006       -0.90324034697372       -0.08184239008682
C           -0.34104692752240       -0.62280763588843        0.01154215206895
C           -1.24800631192139       -1.67487207700164        0.17975049748293
C           -2.64328466951519       -1.68539926690690        0.23499221835172
N           -3.24142014398627       -2.89402401676284        0.46685816224122
N           -3.52815626973185       -0.71872155984404        0.01356337087524
C           -3.24211031811552        0.55982805238966       -0.18825411053934
N           -4.33981468317199        1.30485402915609       -0.49210526768706
C           -2.02162417586734        1.24641068486254       -0.10117486315746
C           -0.71177311931181        0.78360149839252        0.01388886733570
H            2.29862000364395        3.39422864429594        0.10742945260887
H            3.54902034253829        2.24908395431681       -0.11650026467088
H            5.24496880929954       -0.77486515644989        0.18050188625991
H            4.65165778551964        0.67836798862484        0.80070568269569
H            2.03571678432682       -4.00560693954641       -0.75964639256746
H            0.46360790855712       -3.43960189375681       -1.04953553855470
H           -0.79428871772248       -2.64077392770217        0.35475611065104
H           -2.70869299412717       -3.63713631953066        0.88264299358799
H           -4.23153199736847       -2.87070142337105        0.64056034638290
H           -5.23557592117855        0.85604958565667       -0.41913248834756
H           -4.29397011223271        2.30743994031170       -0.47530082663250
H           -2.12107103672548        2.32448954349142       -0.16675989812364
