26
 energy: -48.037609900187 gnorm: 0.000579457413 xtb: 6.6.1 (8d0f1dd)
N            5.48982883094194       -0.20295482732853        0.41902656639981
C            4.36074789744440       -0.04385709519282        0.29974879934857
C            2.96831113609836        0.15195693258012        0.14496363919092
C            2.44444406708959        1.40516027597010        0.50563635753477
N            1.31651207143764        1.89655719075293        0.08480201213637
C            0.26890554313351        1.34126302990682       -0.45814467884956
N           -0.46413007609440        2.07006194611795       -1.29910303170536
C           -0.15812379327380       -0.02796858674534       -0.15412504357879
C            0.81237596074068       -1.08006126598680       -0.26062499020230
C            0.30550514310755       -2.42184366964862       -0.29568227734841
N           -0.93284978880281       -2.76050292158063       -0.12842277923195
C           -1.83407917825248       -1.79629369261648        0.06923363323337
C           -3.21233488642150       -1.88894146779822        0.22451298865642
C           -3.72298916780909       -0.59639447510557        0.36787537383530
C           -2.69107012212908        0.34124433859252        0.26697659295614
C           -2.81368119982567        1.72083249966057        0.39317874775352
N           -2.88518901004897        2.86970714811688        0.44923622363897
C           -1.47122472338771       -0.37873469236628        0.06890107863170
C            2.20340708999634       -0.93413647925610       -0.28254902529039
H            3.05271990619468        2.08334564051560        1.09255925336269
H           -0.22676369986747        3.04014957832548       -1.43422761217745
H           -1.38582981267134        1.76800895755995       -1.56837320057031
H            1.01080225367657       -3.23397643535109       -0.41245566295841
H           -3.78149115118560       -2.79780356083519        0.23024485137624
H           -4.75638437984198       -0.34575941038250        0.52791381248909
H            2.76172743535024       -1.83748827160474       -0.50335523183069
