30
 energy: -55.719752272807 gnorm: 0.000643790155 xtb: 6.6.1 (8d0f1dd)
N           -5.81408139558597        0.49844084027565        0.85141130289680
C           -4.73740914427493        0.19459798177957        0.58673619554518
C           -3.41276676946736       -0.17076689596347        0.26934972376187
C           -3.14929501428810       -1.53845969879337        0.27545861294511
C           -1.98147708194316       -2.20664696638151       -0.00384415054884
C           -0.67207517053766       -1.72630360991195       -0.18036459130332
N            0.20924397334130       -2.71804594015833       -0.37915344238812
C            1.50533039165685       -2.49397876181760       -0.38525565021772
C            2.02821609965327       -1.24561386826592       -0.11340141504857
C            3.34616438101397       -0.75774705858530        0.06733866716813
N            4.49073907259655       -1.45888362651699        0.02234919957470
C            3.23894421428988        0.63597975505074        0.34216697401997
C            4.34064845475037        1.45288873037786        0.61367833120494
N            5.28365603491197        2.07089991057596        0.83618127026243
C            1.89691178207563        1.01153139006658        0.30600729547302
C            1.11563801436978       -0.12865070484490        0.02070896291832
C           -0.26413329403431       -0.33184092821918       -0.12048713196145
C           -1.14376518747958        0.77839313962768       -0.29474228938862
C           -0.55050070838810        1.97305170650989       -0.75653663349993
N           -0.17070744618812        2.96284539603953       -1.20406678837079
C           -2.53654652647824        0.88913771681734       -0.10607761757843
N           -3.10533512541773        2.10474836305991       -0.26287590379682
H           -4.00808698881603       -2.15948828869685        0.50388402043126
H           -2.03298978711934       -3.28690953357953       -0.02717923189223
H            2.12593725805511       -3.36064608020580       -0.58130303057993
H            5.36796926932316       -0.99259120617551        0.17778369386496
H            4.48279911261319       -2.44201335906310       -0.17980823966177
H            1.54429301637235        2.00390305968364        0.51010324065892
H           -2.55015281124170        2.90109365692294       -0.52705123096141
H           -4.09610018567026        2.21860702859607       -0.13046014122106
