28
 energy: -51.468334888603 gnorm: 0.000590198837 xtb: 6.6.1 (8d0f1dd)
N           -5.24191665143357       -0.76392916472185        0.17408330671822
C           -4.09769825355015       -0.80007397046712        0.07711438222892
C           -2.69399850372634       -0.81302249864206       -0.05075866251797
C           -2.10757899938003       -1.95691044095854       -0.61930420568533
N           -0.89462369584062       -2.36581972583829       -0.40622224829448
C            0.14087018086777       -1.72602173920042        0.06612914405509
C            0.40235222061592       -0.34441036384648        0.01533821828949
C           -0.63231262818830        0.67032163294183       -0.02039255936252
C           -0.26751684174786        2.01745614335163       -0.21946570598687
N           -1.24144523862220        3.02261260517320       -0.33057666006722
C            1.07241524720977        2.41214046745739       -0.28901572981602
C            2.07330717618688        1.48652974717692       -0.12083538970273
N            3.41425338802369        1.67902525242807       -0.11684791483264
C            3.95153876246712        0.48369978046098        0.01571684094971
C            2.99016342971115       -0.56122085773731        0.10446910340281
C            3.28509778546505       -1.91428610180740        0.23745024992668
N            3.54726556223227       -3.02954454711446        0.35207185036167
C            1.74204790183396        0.08331216493137        0.03199764822774
C           -1.99720310031587        0.35219185819814        0.34540081626655
N           -2.68421107934519        1.26552059803925        1.04524246772362
H           -2.74030370054246       -2.64322024004203       -1.17073952059945
H            0.94985016025797       -2.37666935992133        0.38089678839343
H           -2.04580228891955        2.77579441836799       -0.89174409353320
H           -0.84470570229524        3.90277597020765       -0.63051427892871
H            1.31823793121417        3.45004716361857       -0.45795033896111
H            5.01897075306700        0.35827730605747        0.05198393272449
H           -2.27003225437940        2.16409699699069        1.24202689286418
H           -3.64991137486109        1.09818578389712        1.28018979325457
