27
 energy: -46.975971445841 gnorm: 0.000536855490 xtb: 6.6.1 (8d0f1dd)
N            5.52932375806112        0.57576397725760        0.01150971269905
C            4.41592273287950        0.29668671204812        0.01035786722307
C            3.04568478498185       -0.04897962792560        0.00888434373920
C            2.75403449826935       -1.41943441169084       -0.00541165053112
N            1.61101098643335       -2.04452459943383       -0.00139098611464
C            0.36949488972498       -1.54247626012730        0.00783590492730
N           -0.55878502604603       -2.48832272239982        0.02016434496443
C           -0.10792499127681       -0.17005220428765        0.00197543703824
C            0.74165578688459        1.00489989224857        0.01194136708969
C            0.13552478204514        2.29535927448420        0.01748594679731
C           -1.21099989758929        2.49940880532269        0.01068844031730
C           -2.06023602596373        1.38478886593710       -0.00226222665577
C           -3.43109682168791        1.20785319810929       -0.01389658036239
C           -3.63203712589422       -0.19350750211224       -0.02613692559479
N           -4.83051900698531       -0.83267760172067        0.01665194852387
N           -2.48160851116087       -0.87480688477682       -0.02231140775745
C           -1.48100022486217        0.05174982251107       -0.00588229436120
C            2.13248552126473        1.00865584568001        0.01819724595931
H            3.60772614037218       -2.09349917587043       -0.01936136207933
H           -1.55527259424488       -2.17606119234240        0.01710767856679
H           -0.24586286465036       -3.44556342455385        0.02675847600717
H            0.79747849476582        3.14946614709115        0.02691211118468
H           -1.62283900502396        3.49803852741074        0.01533334004389
H           -4.19805957563198        1.95697409375244       -0.01265326048451
H           -4.83055942954324       -1.81606333876606       -0.19518641578063
H           -5.64779706591692       -0.31109781020121       -0.24903302456195
H            2.59183037999520        1.99180296505535        0.02833672570251
