27
 energy: -47.756105647208 gnorm: 0.000339339866 xtb: 6.6.1 (8d0f1dd)
N            5.50477759899395       -0.46478169599073        0.93989414480697
C            4.43330976171371       -0.14034839002093        0.68356748457412
C            3.12910357676388        0.26896777577529        0.37573173679470
C            2.75911271084688        1.56654434051649       -0.02355615851960
C            1.37168697462795        1.58005082998329       -0.18951598277555
C            0.49159714443629        2.59504262739717       -0.55386059055885
C           -0.86124819844692        2.35079522408462       -0.54487651985972
C           -1.39724891158413        1.09550295687118       -0.20098134098706
N           -2.68777502576715        1.09254851691600        0.07010997063826
C           -3.55769860267304        0.13475306522419        0.27574813571666
N           -4.71672350101803        0.52412106096216        0.85014197060463
C           -3.44154614975181       -1.21492665228371       -0.16031465860693
C           -2.26389566113582       -1.84708234486286       -0.43739660334457
C           -0.94266128863811       -1.36928782136637       -0.29656113990258
C            0.00641813307233       -2.38968287597877       -0.54993178311328
N            0.68655850220653       -3.28075779967074       -0.79686524920113
C           -0.48404556504266       -0.05727316971569       -0.07493116343933
C            0.87706952039669        0.24491541110361        0.07459405045170
C            1.98764254255572       -0.54263096229258        0.43147416598396
H            3.42940552458426        2.39323419422301       -0.16883159909285
H            0.86638961314382        3.58221591844808       -0.78374955004383
H           -1.56798956577011        3.14420783198077       -0.73096432840024
H           -4.82758415543839        1.48953396948351        1.10512029979217
H           -5.47853662361647       -0.11617329994982        0.97646584933825
H           -4.36003362785434       -1.77725545533893       -0.25835609101903
H           -2.33365283588454       -2.88303905717948       -0.74966946715157
H            1.98211615307958       -1.56912298571891        0.74399826261396
