28
 energy: -50.679264190694 gnorm: 0.000616720387 xtb: 6.6.1 (8d0f1dd)
N           -0.48309397628029        4.02283363967962       -0.73196853427422
C           -0.43704699444112        2.90421390066104       -0.46789912993355
C           -0.46202766394264        1.52705307863881       -0.19921590864262
C           -1.71055593597292        0.85716552230825       -0.22566740503759
N           -2.84359594675040        1.53694141960638       -0.52617274723694
C           -1.72827691337600       -0.48986407620313        0.14526849909195
C           -2.74852337361791       -1.45147355716986        0.30310837544192
N           -4.10374473394614       -1.26693413677000        0.23171568984524
N           -2.23608401522481       -2.68499045902831        0.51168399998055
C           -0.91322902549454       -2.56814872863241        0.49560014189205
C           -0.50326887031314       -1.23686086014093        0.29292832488088
C            0.74049076221836       -0.62399485123068        0.13396331936052
N            1.80944093409377       -1.31915758630702       -0.17924486875310
C            3.07741812234645       -0.96327375679219       -0.27548790871770
N            3.84814407779971       -1.81394837282258       -0.99192852527122
C            3.69237249700016        0.12099151235538        0.39536830441791
C            2.98056935326043        1.19745856001727        0.88010401038688
N            1.74489383078436        1.56012578161347        0.60982040363326
C            0.73053513670120        0.86080218519914        0.15184809096061
H           -3.66235587577948        1.01236015186488       -0.78202412080248
H           -2.75063380605766        2.47205652822878       -0.89074937155253
H           -4.61984156815246       -2.09560876591341        0.49110314899294
H           -4.46337394215044       -0.41512255209369        0.63603122923686
H           -0.28562836923366       -3.42498431585199        0.65374114948924
H            4.84723021245289       -1.72334703916170       -0.99523366797400
H            3.42524586117502       -2.65034344951542       -1.35382405005104
H            4.76620906110582        0.10224422185233        0.51859655301707
H            3.50821893939293        1.92867619420990        1.48562143262862
