29
 energy: -46.393229071654 gnorm: 0.000628008001 xtb: 6.6.1 (8d0f1dd)
N            3.83015622005256       -2.55166762588030        0.37354826197512
C            3.18956246679946       -1.60505707529634        0.24147409807449
C            2.47996162404558       -0.39526138766307        0.08064934485990
C            3.31812535638183        0.71913640461576        0.17877330874828
C            3.03217724181876        2.05111115234502       -0.01535812107194
C            1.78735499905367        2.59390270455914       -0.35458020313307
C            0.56396198162590        1.98610024413623       -0.39357447424913
C            0.16462080255865        0.64205784842776       -0.12001672353969
C            1.06165663568935       -0.49484234658821       -0.08440307065006
C            0.52114668342128       -1.78302263533263       -0.17213493428361
C           -0.84093836055561       -2.03374278787857       -0.19907262608667
C           -1.71440762909480       -0.97833909961675       -0.07466601392377
C           -3.13264287968335       -0.90415686274489       -0.01701183537659
N           -3.98378032875249       -1.96835588661987       -0.03213785879226
C           -3.48640436883617        0.43617552682892        0.15492691785036
C           -2.33378229852266        1.22253697321620        0.18370966399605
N           -2.33001191673264        2.58131373824331        0.36939400962596
C           -1.19641588876814        0.37107228832692        0.00228640817805
H            4.35376143391234        0.48124618752248        0.39835353828961
H            3.85966901210492        2.74382179181832        0.05655717950120
H            1.79621844653496        3.64927445533815       -0.60367581452271
H           -0.25135630523552        2.61404185187662       -0.72589590311123
H            1.20148720900695       -2.62030469842610       -0.21591947298182
H           -1.19330103046771       -3.05249048195137       -0.28269857168106
H           -4.95655148361846       -1.78448379310053       -0.21082383491777
H           -3.62572632790623       -2.84307239306472       -0.37600736489534
H           -4.48970405174884        0.80648697754400        0.26678667221297
H           -3.20270949446311        2.96185659326816        0.70415418059652
H           -1.51069337182018        2.96688996479619        0.81505126770893
