33
 energy: -58.095206290516 gnorm: 0.000787191741 xtb: 6.6.1 (8d0f1dd)
N           -5.35516398266107       -2.14974245903343        0.35258324650912
C           -4.31851774984222       -1.66008555988268        0.25011304878301
C           -3.08783252707679       -1.01199060544900        0.14256548145130
C           -1.82467925798888       -1.59963343048274        0.07465127632682
C           -0.86643137635150       -0.57578166987908        0.01496589084865
C           -1.56913513766614        0.68311906883689        0.02136598743238
C           -2.94136961400468        0.40572835949361        0.12400992721008
N           -3.98514214716101        1.30220202465108        0.16420614849784
C           -0.85700120413494        1.87788610864996       -0.13310498307035
N           -1.48866294486492        3.08038198614030       -0.23337506310178
C            0.54975287933396        1.80449732169688       -0.13674680976846
C            1.24505103514964        3.01468063924236       -0.27158486469270
N            1.76829138635261        4.03316645583955       -0.40227687835913
C            1.28069303498984        0.58471441193230       -0.02691886060323
C            2.65602128426048        0.67769133397371        0.12500268612563
C            3.64617188949750       -0.31729346301558        0.24058624492667
N            4.90498487000840        0.12690093774711        0.51323507682871
C            3.46393934395306       -1.68650727566168        0.09935174748510
C            2.25567726709406       -2.35261608591087       -0.16373494311790
N            2.31889942791402       -3.69483954791000       -0.38037432281659
N            1.01668873716084       -1.90010028158953       -0.16707470196968
C            0.53232967650156       -0.67433931413623       -0.05003318922904
H           -1.61692041772430       -2.65183427181358        0.08280068713027
H           -3.82140854763747        2.15125820787040        0.68467833072786
H           -4.88056842199386        0.87786521796813        0.36483781164889
H           -2.43581412237717        3.07795243182737       -0.57302002731522
H           -0.92353920074115        3.87746809074961       -0.48443554960281
H            3.04111446433019        1.68970750505695        0.19661158043419
H            5.67913929236540       -0.51100669748876        0.47825908835610
H            5.10354241869177        1.11048757292417        0.47824137933770
H            4.34746198266881       -2.30823436923499        0.17315246395503
H            1.46432096487663       -4.15485021424246       -0.63951502654090
H            3.19433397957732       -4.15477081106929       -0.54859703932790
