29
 energy: -52.013393831068 gnorm: 0.000235454195 xtb: 6.6.1 (8d0f1dd)
N            5.13647344574172       -0.14386100700570       -0.00001518920600
C            4.01876919161339       -0.40883489107508        0.00142552182690
C            2.66782010482867       -0.76942574451145        0.00075321322818
C            2.17834508533915       -2.08127530326706        0.00066465502940
C            0.77864373834768       -2.05619904958776        0.00056072608498
C            0.00780484168219       -3.21966952426965        0.00061969751388
N           -0.59555277985909       -4.20074904442889        0.00064842779525
C            0.35262118752948       -0.69585867903532        0.00045798346095
C            1.55669933885352        0.10025480310750        0.00047350408383
C            1.45960109470878        1.49534378125655        0.00037033054714
C            2.60549568846581        2.32510911825966        0.00012019134223
N            3.49910063389716        3.04236182304938        0.00061957194601
C            0.20561632104859        2.08256276342407        0.00030124832313
C           -0.98942440370895        1.33907940046716        0.00027382141792
C           -2.17552160131772        2.10446917580830        0.00014884462668
C           -3.50208899662393        1.76549733718926        0.00001137729740
C           -4.09642183009232        0.49181627377184       -0.00002388019475
N           -5.44494490818197        0.42965045566978       -0.00018687403802
C           -3.39289507174806       -0.72949449499941        0.00009856010683
C           -2.04730967342495       -0.96348215584764        0.00025702489352
C           -0.92306308663892       -0.10438882609136        0.00033403082616
H            2.78145809873785       -2.97098959960603        0.00083974828749
H            0.14580671514658        3.16147762634108        0.00025494829495
H           -1.99365597173200        3.17354639972945        0.00013798063523
H           -4.20098059876156        2.59391612733628       -0.00009138494503
H           -5.99895907399458        1.26759281292695       -0.00029956891187
H           -5.91615913993648       -0.45762432987369       -0.00021653586980
H           -4.02055857898490       -1.61299727786961        0.00007389584440
H           -1.78426732203515       -2.01318071886867        0.00032966325297
