27
 energy: -46.947399314725 gnorm: 0.000502521249 xtb: 6.6.1 (8d0f1dd)
N            4.07611504348365       -2.38413439094207       -0.13588335933135
C            3.23326094159117       -1.60271367102932       -0.11803693463864
C            2.23068740823699       -0.61220925419678       -0.08761397374178
C            0.91731062129200       -1.03888419018396       -0.11751687016773
C           -0.28894613891660       -0.31868019812853       -0.02525416334700
C           -0.38938423348057        1.13732672516727       -0.05284783333247
C            0.68417818958468        1.98666486530304       -0.32383009003700
N            1.98625864728300        1.83703337880448       -0.22963012235635
C            2.68743312823786        0.74679266498937        0.00680891486439
N            3.98453259740690        0.96048503404776        0.30295986785111
C           -1.69380772806981        1.71896676727471        0.07218631207920
N           -1.85270911573045        3.08673094309447        0.11627955524490
N           -2.82231073435768        1.03571629056790        0.10786450050173
C           -2.76551426977313       -0.28555113431670        0.05556997209540
C           -3.79812118122231       -1.21656687610747        0.05517209769967
C           -3.21484879595260       -2.48753704169771        0.03249078083274
C           -1.82492587203643       -2.38684656491406        0.00575607875457
C           -1.48841536487774       -1.02869897664545        0.01518977693156
H            0.79060693647079       -2.11345398862098       -0.17116942422612
H            0.42666021339964        2.99731908190693       -0.63002679430073
H            4.63045266329353        0.19468625641506        0.39078112715714
H            4.32181183211363        1.90749371507912        0.29573242735029
H           -1.15856329293224        3.63568633680702        0.59437501891416
H           -2.80769874255859        3.35452768120173        0.30141996666486
H           -4.84720205591341       -0.99508877139989        0.07540667671707
H           -3.76117890719841       -3.41474967899729        0.02957980708046
H           -1.14791588827275       -3.22158360847552       -0.00934510706087
