24
 energy: -43.773146573948 gnorm: 0.000990153724 xtb: 6.6.1 (8d0f1dd)
N           -3.82670021009969        1.94409635457785        0.33032169266083
C           -2.85779568606694        1.33878977531304        0.22003958636169
C           -1.62741760531993        0.66014085279663        0.10452238635259
C           -0.42898454550662        1.40968126213834        0.03190941211139
N           -0.51413769168262        2.77737697035607        0.00540822686609
C            0.82512372640487        0.76825285245097       -0.04623048044341
C            1.96408189079165        1.53356610599569       -0.40703606201930
N            3.21321298654635        1.32157323291735       -0.12139058655376
C            3.72048072077408        0.21760199078346        0.39846303814504
N            3.33796755745649       -1.00571806670573        0.15939316094116
C            2.12761185248557       -1.38661745557905       -0.18439712898991
C            0.91175167455171       -0.69562478567067       -0.03520053473995
C           -0.28855160930308       -1.41428411752743       -0.03638217736087
C           -0.62550114551138       -2.77022356630665       -0.04792715619719
C           -2.02237732947242       -2.81114506475185        0.02040337965165
N           -2.59078132041630       -1.60305927748211        0.07152885628578
C           -1.57903948589749       -0.72707795390735        0.05054271870300
H            0.27230951443478        3.32673229037483        0.30512570965682
H           -1.42287997145573        3.17635697233143        0.18069024890138
H            1.78804926591411        2.46727247002213       -0.93561261555012
H            4.64879506858208        0.33696616866134        0.94640781432608
H            2.06704035270598       -2.42357164233258       -0.49638339353005
H            0.03087899381827       -3.61744091289231       -0.08138142565558
H           -2.64077323145303       -3.69087579086528        0.02838083616812
