25
 energy: -47.514019383606 gnorm: 0.000757696575 xtb: 6.6.1 (8d0f1dd)
N            5.34021645166654        0.14856163545237       -0.10811801284293
C            4.22051623999733       -0.10890061033723       -0.08533382047907
C            2.84239060552814       -0.40513512539758       -0.05065308003514
C            2.47238054747527       -1.71887197772265       -0.34144618320859
N            1.36087862915889       -2.32442893981110       -0.01121672353428
C            0.20136031989857       -1.82243274577953        0.29732182179014
C           -0.27829123389730       -0.52661523518320        0.03576712407137
C            0.54791776375227        0.66768422287648       -0.04559531093228
C           -0.10483933742461        1.88883758685292       -0.29282288978886
N           -1.40126665455879        2.08829239687460       -0.41508102973508
C           -2.18679760931921        1.04454855829451       -0.22931879101844
N           -3.51647454334584        0.97874702785326       -0.22051022634431
C           -3.76521149295015       -0.33312551673354       -0.05494955403759
N           -5.01057394464655       -0.81114345930253        0.02398154756171
N           -2.68623392393248       -1.15408462901126        0.05229672308532
C           -1.65664951918144       -0.31447714679864       -0.02762843799692
C            1.95229101176125        0.68024434220340        0.21370274074777
N            2.51655425655024        1.82216993760686        0.63582412309657
H            3.22481633620789       -2.37002257464227       -0.77503885314162
H           -0.52020282543844       -2.53233553214389        0.68792301050130
H            0.48269617220649        2.77974069798203       -0.48438426314419
H           -5.77889294841315       -0.18131790325948       -0.11514988277160
H           -5.15186495576857       -1.80255367832443        0.08053100198506
H            3.51879803157556        1.88694185622389        0.72236802435648
H            1.96001147359994        2.64537262582663        0.78752221311522
