32
 energy: -59.164699792315 gnorm: 0.000709404390 xtb: 6.6.1 (8d0f1dd)
N            5.45957655156599        1.36813841570185        0.08452454360175
C            4.35040321565812        1.06453657907451        0.05164688689030
C            2.98645417057554        0.72015136774929        0.02754148596833
C            2.68767032127248       -0.59283511207242       -0.31105597968612
C            1.47728412297076       -1.26972843909185       -0.29572848831069
C            1.58561224405090       -2.59227500509084       -0.78848629645393
N            1.74967703182951       -3.60587301197248       -1.30334599350358
C            0.16538314353814       -0.80564395634005        0.03685105286373
C           -0.82827481416289       -1.76673356697585        0.31674120466608
C           -0.49409895686127       -3.09127412677078        0.67194865652447
N           -0.33811372944084       -4.15564511003306        1.07363655833217
C           -2.19888660369227       -1.45479316551429        0.36575020784792
C           -2.56951538629647       -0.17017726911849        0.08675291581300
C           -3.83236796432618        0.50617835082470       -0.04711027733821
N           -5.04653208242092       -0.03954078232562        0.09553767189629
N           -3.66319242723582        1.79425380555566       -0.34303330734894
C           -2.33185177754995        2.02328104653028       -0.39339108915073
N           -1.88611277150297        3.26506350365692       -0.69761771129177
C           -1.57623273626852        0.85288474184744       -0.11125569197178
C           -0.20124148628411        0.59150553452855        0.01223519608166
C            0.67442547944565        1.67597949435621        0.21013202573868
C            2.05312922092111        1.76183634273490        0.31992663584557
N            2.57975091553426        2.96956135348640        0.64839135874859
H            3.54293856926478       -1.19763247984339       -0.59570683461505
H           -2.90887542634924       -2.23650442563819        0.59331430379164
H           -5.14996937246043       -1.02937303190312        0.22389052933102
H           -5.85547147703648        0.52943760862944       -0.08098317068667
H           -0.98597925351662        3.34745251766222       -1.14313666930550
H           -2.60472988439594        3.89715203036241       -1.01654245195142
H            0.16503998283543        2.60900666716840        0.41908316346008
H            3.57038607017046        3.06042472192484        0.79703995375331
H            1.97980144666866        3.71936663039692        0.94211206935957
