30
 energy: -55.725959711755 gnorm: 0.000788840382 xtb: 6.6.1 (8d0f1dd)
N           -5.67424544801118       -1.76338347654795        0.94691346610236
C           -4.68956159404533       -1.22038127127325        0.71378243679384
C           -3.50213047648664       -0.53195197659536        0.43334092796189
C           -3.42887345052803        0.84105467697185        0.09786024210076
C           -2.08763821281444        1.16714562588920       -0.05994557970723
C           -1.45002149697651        2.38564670328724       -0.37909671755787
N           -2.15835104511260        3.49525985335925       -0.65490945748635
C           -0.05481782633886        2.41892880166961       -0.33545110142234
C            0.72486498832198        1.30378694050043       -0.05406657358286
N            1.99238845835545        1.55976250236963        0.24986303651104
C            3.05173962564372        0.81584768418215        0.37512829604273
N            4.10635963473384        1.38580500631683        0.99396243547603
C            3.22719160712942       -0.51397124967816       -0.15920062617083
C            4.55109380330777       -0.95650110770152       -0.33941820714824
N            5.64665523318528       -1.27851246403065       -0.46720510900413
C            2.19581576935489       -1.37601459591030       -0.46119667993779
C            0.81206664028334       -1.19967716064551       -0.29536600854404
C            0.10087461578856       -2.38554913480068       -0.61000277555449
N           -0.37640785484514       -3.38445288808938       -0.91141722536614
C            0.08440187360509       -0.02756149990620       -0.01190261785075
C           -1.30748957295146       -0.03097104817353        0.13902519288922
C           -2.21707938176676       -1.06769503703019        0.45079855650813
H           -4.27995824481159        1.48999024431533       -0.00388709345399
H           -3.16063567239058        3.48192599012099       -0.59657531256671
H           -1.69077417346280        4.37043952555128       -0.81136303298407
H            0.45704522868975        3.36245319020509       -0.44944404555233
H            4.02380785214280        2.34093136173543        1.29530194380248
H            5.00406137493599        0.93331268118513        1.00596782592303
H            2.49135716018034       -2.35370687151225       -0.82842953029697
H           -1.97753595421498       -2.08066557877304        0.70895901017973
