25
 energy: -42.708366744499 gnorm: 0.000677936399 xtb: 6.6.1 (8d0f1dd)
N            3.98490721928697        0.01030147691459       -0.27568540736799
C            2.73968134582629       -0.58144505688395       -0.25776247750506
C            2.48425865089511       -1.96738018643700       -0.35814799905988
C            1.12873918140039       -2.19401367726820       -0.24857596451649
C            0.48057524469397       -0.94922135261148       -0.09059515974466
C            1.50877276521234        0.07323481441040       -0.08622036874195
C            1.15244532109822        1.38019194561305        0.28073941065107
N            2.07572085065941        2.32189024815373        0.59886650954451
N           -0.11797314987688        1.79060980095715        0.25896419351689
C           -1.06554281405461        0.91436603667232       -0.02037470268486
N           -2.17053653752110        1.28427224888657       -0.59844708957411
C           -3.32077999534745        0.67426595536227       -0.78382443359050
C           -3.85835554588944       -0.34760029853647       -0.01898150332602
C           -3.05160717581506       -1.14643315572872        0.80146494650194
N           -1.76235334723117       -1.30640521969318        0.70327543699096
C           -0.82677427460431       -0.56561611625829        0.16231844897395
H            4.72729917202805       -0.59522103292590       -0.59474558116639
H            4.01959524401619        0.93228109517311       -0.68604520256833
H            3.24258009444410       -2.71694605142819       -0.49859317104741
H            0.63523196814404       -3.14670227328736       -0.28599818313407
H            2.98157167996622        2.01391819721960        0.90912614376605
H            1.71028500524681        3.17855946586850        0.98257983191404
H           -3.92702441505915        1.13184449745372       -1.56021937577552
H           -4.91670328227752       -0.55769317252083       -0.07855777334575
H           -3.52277281784106       -1.81510011820499        1.51551451828913
