24
 energy: -42.987030944810 gnorm: 0.000935416826 xtb: 6.6.1 (8d0f1dd)
N           -4.07150611662361        0.92263353777125        0.89456876171910
C           -3.09776525245533        0.31746097273659        0.17581368191440
C           -3.31831972811915       -0.99317874847386       -0.31388377904220
C           -2.28320002871836       -1.81753652870983       -0.70282796487602
N           -0.99785681706377       -1.68049255149891       -0.45609317638709
C           -0.30108124051869       -0.60026523765850       -0.20132682738958
C           -0.82584967972893        0.77746594953667       -0.43766184979217
N           -0.03876776340741        1.76388055959238       -0.85137540665106
C            1.27459452161521        1.64337983144556       -0.72786762095596
C            1.85223281433395        0.56198374469076       -0.09800206671858
C            3.17701300055332        0.16160422103347        0.24646080943775
N            4.29311150235119        0.91226803973405        0.21337712934328
N            3.20871161663709       -1.11504556253945        0.67092491555080
C            1.95856634907139       -1.58363587325572        0.61082080143618
C            1.04929116243093       -0.61553067543393        0.16413748045840
N           -2.05472752856431        1.08026571872880       -0.09031994004726
H           -3.95954729942568        1.89637001766461        1.11638556195063
H           -4.97042038983449        0.49052035651725        1.00503916760945
H           -4.33108509948303       -1.37103232313844       -0.33433987906590
H           -2.52859865776591       -2.77359088978527       -1.15460951772421
H            1.85327750085338        2.47136540529739       -1.12108961980938
H            4.28341180069112        1.81420288927246       -0.22628174254389
H            5.16933509741762        0.45596342807578        0.39489715531909
H            1.74611059135314       -2.59932392820106        0.88805621166397
