26
 energy: -43.227946668223 gnorm: 0.000477702555 xtb: 6.6.1 (8d0f1dd)
N            0.23969898095855        3.11559436904105        1.13294025590496
C           -0.32511956700519        2.21095668096078        0.69587849080624
C           -1.05701874418463        1.12838843917611        0.18254423322128
C           -2.40025904033729        1.44286019411199       -0.04646228549281
C           -3.43932152314695        0.62477111616661       -0.42759898442868
C           -3.42490933193987       -0.77247959936976       -0.46990933109666
C           -2.39838959402885       -1.62269862015797       -0.15837746757397
C           -1.02150396776410       -1.39187291767062        0.09769116210931
N           -0.36825787206610       -2.51553278394451        0.37842978289081
C            0.95514142676934       -2.53007725098644        0.47094773455095
C            1.71398860492805       -1.42735414201568        0.17177395145054
C            3.10993216392505       -1.22987393320944        0.04991633232921
C            3.32285179554089        0.06875534975979       -0.33520292030492
C            2.08528091890354        0.75727875220557       -0.43724899476735
N            2.00961417795685        2.00167966126555       -0.96582864414065
C            1.04658481423334       -0.16061001194814       -0.09851598560186
C           -0.34687746467670       -0.10255982379121        0.01443907234922
H           -2.64059038214975        2.49311154142138        0.08441972401209
H           -4.38205496083781        1.10787823239020       -0.64571431290113
H           -4.36761936750992       -1.24086882064974       -0.72504075951810
H           -2.62608753091032       -2.68130262683535       -0.15440989082419
H            1.39605092447328       -3.48160845306376        0.73970254592695
H            3.85733263884833       -1.98359630456056        0.21295445056470
H            4.27504879548551        0.52358092334258       -0.54237515129333
H            1.20473227424624        2.58249809123731       -0.80229430093242
H            2.88387739528845        2.49328194542414       -1.06026162544027
