31
 energy: -53.842328382079 gnorm: 0.000687886932 xtb: 6.6.1 (8d0f1dd)
N            0.73610412352637       -3.49630581041711       -0.91356650217786
C            0.92502733575772       -2.41913520483316       -0.55035381947769
C            1.29700028107603       -1.10472517482852       -0.20710307820698
C            2.70117895313613       -0.92782764364963       -0.09451263935156
N            3.47136233602874       -2.05212566609752       -0.16232260549481
C            3.38265452331717        0.25905748303170        0.15891703650684
C            2.90164187317950        1.56652532207585        0.18741766006899
N            3.83239264088660        2.55734544879677        0.35449205760328
C            1.58825773050693        1.98605501691805       -0.02481549873952
C            0.39342799855124        1.27991198965509       -0.14513495447567
N           -0.65870558508847        2.08812062180065       -0.35565935017707
C           -1.90498958358381        1.64347529643775       -0.31946903917012
N           -2.88811837861024        2.55375973010113       -0.57543363268459
C           -2.17939704826607        0.32251078888067        0.04497528472517
C           -3.32350148012259       -0.42983036001608        0.34968274825025
N           -4.62903783737031       -0.01478434460217        0.38185297040189
N           -3.00143096023891       -1.71815438009427        0.61479084235897
C           -1.68825501311693       -1.83381288714984        0.47901114527064
C           -1.07638912745775       -0.60343689003495        0.13456989018203
C            0.24346136002647       -0.17054986221878       -0.05222506762117
H            3.05582010697247       -2.92119192261089       -0.45181001377397
H            4.46781603281631       -1.95928553868583       -0.24183002575832
H            4.45297665146597        0.15263480468374        0.29703458837160
H            3.50838233263992        3.48804574992275        0.55003289510818
H            4.74599259462645        2.31424149462407        0.69488422112030
H            1.44144052172972        3.05873224249806       -0.06101729421110
H           -3.77302266288424        2.20063960772433       -0.89875284826110
H           -2.57098081185989        3.42134099519115       -0.97820428760144
H           -4.78762091792881        0.93162164238857        0.69305685312730
H           -5.24702853056926       -0.69907681444869        0.79315567964286
H           -1.21696010824470       -2.77699810604184        0.67732788024448
