31
 energy: -55.449697817906 gnorm: 0.000671687166 xtb: 6.6.1 (8d0f1dd)
N            6.07333564883666        1.98536312016004       -0.05310874090908
C            5.00812673609896        1.55788617996293       -0.03692456525662
C            3.69674682998061        1.03407365670608       -0.01920622644917
C            3.57467647865884       -0.35835329828407       -0.08108553855712
C            2.43662665902919       -1.12588368498172       -0.07116300395175
C            1.06357343368785       -0.79140656488666       -0.01361670857786
C            0.16858235069354       -1.88297216691060        0.01253048949892
C            0.65148992247111       -3.20416765487019        0.04678378277641
N            0.95514065579654       -4.31324767056081        0.08927496405718
C           -1.24372667416773       -1.74718633174464        0.03722612137338
N           -2.03527262031800       -2.84446124221718        0.08720150461725
C           -1.76176318630418       -0.45484925953827       -0.01823076377717
C           -3.08370336453597        0.02214140515813       -0.06755163869723
N           -4.24449675125788       -0.70464489185084       -0.13964957440148
C           -3.01868728234242        1.44145444805301        0.00389766990424
C           -4.14311007388944        2.27096078845487       -0.02025059192777
N           -5.09717373645491        2.91136832706652       -0.05516640346054
C           -1.68379104715580        1.83735531552803        0.06063790824318
C           -0.87114743113228        0.68839920303604        0.03199546019373
C            0.52741605164988        0.55527989638413        0.03324226667669
C            1.29833984445241        1.73876556905338        0.08213075085859
C            2.65076341096648        1.96388154938339        0.06225108343264
H            4.51038271433568       -0.90221525046126       -0.13971320383450
H            2.62082270916031       -2.19356324000691       -0.11848046182374
H           -2.98213632740774       -2.73731241409268        0.40806157332749
H           -1.59570146898567       -3.73926440853232        0.23965262710695
H           -5.07683658408807       -0.14616897514130       -0.27094348073680
H           -4.22589625501823       -1.53945994080572       -0.70612523289665
H           -1.36976720367787        2.86292589171944        0.10789895587468
H            0.70218363921878        2.63876395089055        0.14370766000736
H            2.96140178959929        3.00130058942898        0.11090096490890
