29
 energy: -50.414122707757 gnorm: 0.000554725223 xtb: 6.6.1 (8d0f1dd)
N            4.08599291912596       -1.86666102073139        0.51787348666812
C            3.09356956787210       -1.31361304148928        0.34065668810840
C            1.86304776429456       -0.66215266731425        0.14802190860591
C            0.67678850561335       -1.40298947538822        0.10695674070340
N            0.75463204236655       -2.80044584147721        0.18577634511354
C           -0.57767063028930       -0.76853329204382       -0.05248989951647
C           -1.74496445777560       -1.58643692773863       -0.33708868525416
N           -1.58898328158170       -2.64084755928980       -1.15794871782561
N           -2.94316568550980       -1.43979307670350        0.16515233577828
C           -3.50023349090044       -0.35803264133988        0.66815472525110
C           -3.13739387047403        0.94902673686859        0.45733991060466
C           -1.90484068306694        1.42305881789505       -0.03857177214806
N           -1.79727193563173        2.71532829374853       -0.32721745447984
C           -0.67536156585615        0.65455892654353       -0.08815179420671
C            0.52856335063121        1.37274486451450       -0.13867951343672
N            0.70091337490773        2.70760227045564       -0.26539124601367
C            2.02624228208466        2.92356663998228       -0.22035786275151
C            2.75960641421873        1.75586183151064       -0.07018153914362
C            1.81403277378346        0.72896302985837       -0.01302903509724
H            1.67455346895079       -3.12212641827723        0.45922536298842
H            0.02733868170790       -3.23517544081313        0.73638396006057
H           -2.38315681038122       -3.23322948726529       -1.32918504005780
H           -0.66905771678709       -2.92370001373978       -1.45180657011052
H           -4.42453272237895       -0.55804196428563        1.19996979923037
H           -3.86363228063858        1.70999026350966        0.71503393901901
H           -0.80813131909366        3.08249702827632       -0.41100135900949
H           -2.58833034442393        3.31910429132125       -0.17037337690991
H            2.40426796568891        3.92699409023352       -0.30937707438405
H            3.82587738814314        1.66166418077935       -0.00924403908589
