29
 energy: -56.001149928669 gnorm: 0.000608948572 xtb: 6.6.1 (8d0f1dd)
N            5.80665036145882       -1.10068895367278        0.43433506747993
C            4.69938701013293       -0.80715976531232        0.33572672930432
C            3.36080803462233       -0.40202326367540        0.19433675737128
C            2.35504314245747       -1.32211068582172        0.43751655057212
C            0.97396837832920       -1.18457937634029        0.27585066137808
C            0.27823624471424       -2.40339264366966        0.45333324676831
N           -0.22630653813647       -3.42112670532972        0.61945461260602
C            0.21129238896316       -0.00141119014498        0.09830144491515
C            0.81600557653172        1.33164102346541        0.26079201058921
N            0.10010288804551        2.37324693878644        0.68442390290390
C           -1.21455170960306        2.32165371160046        0.70251186726766
C           -1.90834697578529        1.23262766070546        0.20741744631324
C           -3.28392813587050        0.96431861478386        0.00077897789638
N           -4.31397913757946        1.80802655527781        0.15378998983283
C           -3.38674764576812       -0.39511640485023       -0.42609216804137
C           -4.60134689689989       -1.00619359819717       -0.75305473581828
N           -5.62688274359557       -1.45456150678441       -1.01283328652493
C           -2.11693952382468       -0.96466088160240       -0.45888945248672
C           -1.17451737990525        0.01601790132363       -0.07778393012355
N            2.04865010460918        1.63364580314962       -0.08878696071108
C            3.12698685693326        0.93203936841663       -0.29718614758286
N            4.11911407234138        1.54781417791062       -0.96381797588686
H            2.68840111383316       -2.31330487725039        0.72791891257236
H           -1.70917635244395        3.20328709927388        1.09279404284170
H           -4.16566634598092        2.74763707265304        0.47550129800629
H           -5.25283404606892        1.48391734129557       -0.00648010177275
H           -1.90737730746389       -1.97425983901496       -0.75545370429327
H            5.02934677866925        1.12590429389868       -1.03756401340202
H            3.98856179628498        2.50903023472600       -1.22920910937477
