29
 energy: -51.187725403465 gnorm: 0.000902220358 xtb: 6.6.1 (8d0f1dd)
N           -5.65068005269414        0.41044698073164        0.55453849614134
C           -4.52277081663682        0.51709330831278        0.37063059191678
C           -3.13453237005016        0.63281142507552        0.13741935854249
C           -2.57926563375180        1.91305884002075        0.18046495900263
N           -1.40682144058992        2.27319477141425       -0.28295633707078
C           -0.35560120997711        1.56128934514491       -0.54269276945032
C           -0.04237071307134        0.22030315167847       -0.18748701818892
C           -1.07550574764651       -0.82628959685444       -0.13417502369613
C           -2.43458878486960       -0.57497413496585       -0.05291909855056
C           -0.64273498257291       -2.19581007559181       -0.18006861371095
N           -1.56664119158156       -3.21910716102813       -0.28472531225272
C            0.68920240078555       -2.52729837584083       -0.00425989402068
C            1.66589284503279       -1.54340053439625        0.11016228481039
C            3.04470680620447       -1.60762368369492        0.24652410186825
C            3.55368871351880       -0.29399521667155        0.20259875447667
N            4.85850386518528        0.05768218098407        0.26802044843392
C            2.48082648010032        0.61315919275520        0.01968989379212
C            2.64797951521289        1.99174839739352       -0.02421125826678
N            2.86094696611834        3.12450324242988       -0.04728664047198
C            1.28199544874051       -0.14682139547090       -0.03978794572101
H           -3.19265780935993        2.73210428957196        0.54091600142540
H            0.43541577602180        2.11818816424986       -1.03675194465036
H           -3.07822316463473       -1.44508506849140       -0.00102264710658
H           -1.16341041744112       -4.13660045927534       -0.39057878787601
H           -2.37367578731575       -3.06705738094197       -0.86682596959155
H            0.97369436287750       -3.57031339391895        0.02696974338993
H            3.63579771690929       -2.49706185377392        0.35784972129139
H            5.53609771727308       -0.61939804567529        0.57002920665381
H            5.09084257920589        1.03244116573452        0.35667987898028
