30
 energy: -54.942113086563 gnorm: 0.000959630376 xtb: 6.6.1 (8d0f1dd)
N            4.77276796252687        1.85644106003904       -0.28092655522475
C            3.81226279829398        1.23081290239605       -0.17736534834512
C            2.64311958655893        0.45412414214054       -0.04982968369265
C            2.85559480820675       -0.89014171722885        0.37813036472089
N            4.08069379857969       -1.18240920170255        0.87565006616805
C            1.95502046724449       -1.93042945906016        0.22764697270724
C            0.61752954579582       -1.93008349156612       -0.17771583637335
N            0.05500339067648       -3.10502528100965       -0.45642946111947
C           -0.26947534307276       -0.78461049286952       -0.19204525199187
C            0.10426706381446        0.58722316585769       -0.13794046758890
C           -0.88303043084198        1.56673035882745        0.08150765200038
C           -2.23854398619574        1.29172904557952        0.19041666979679
C           -3.14883160287462        2.33531303841071        0.45849433374727
N           -3.85711554911080        3.21246852046776        0.66963785870550
C           -2.65165522764435       -0.02939904638673        0.00744239755587
N           -3.86335163256523       -0.60722536106754       -0.00524465778028
C           -3.59721553187422       -1.89353395781185       -0.19889143763486
N           -2.30777657270028       -2.22667045988665       -0.31166205520225
C           -1.64811934569958       -1.04838158351077       -0.18835350420573
C            1.44193012806677        1.08719055782073       -0.37778653543155
N            1.53231541297091        2.31765777365448       -0.92275635640144
H            4.32764584376396       -2.13390459047001        1.07999448366052
H            4.80190060935151       -0.48203328092421        0.90121476876190
H            2.36196943137479       -2.91495323844840        0.43385122387783
H           -0.98835700509143       -3.11910180898713       -0.51849600711333
H            0.58403362175024       -3.95203485664163       -0.33032577967814
H           -0.58106007972215        2.59216934392566        0.24354492170037
H           -4.37510979525082       -2.63123086220947       -0.26839590107069
H            2.43360236934974        2.74246737861157       -1.06565275507709
H            0.71020217822018        2.80900756375049       -1.22424984047206
