26
 energy: -48.015778977617 gnorm: 0.000823502365 xtb: 6.6.1 (8d0f1dd)
N           -4.40184760824996       -2.33337570076804       -0.41847248540092
C           -3.50328222402097       -1.63249248895033       -0.29540101802190
C           -2.37555104973819       -0.78554964384059       -0.13580133422132
C           -2.63854360455982        0.56203199576433       -0.02403471578356
C           -1.69988626582831        1.60734848321285        0.10007033872984
C           -2.25463795134531        2.91077560882653        0.19939645589002
N           -2.71705046299163        3.95550136839515        0.28508926919154
C           -0.32133609760093        1.52346461744540        0.09398180736891
C            0.53782072731639        0.40878712947288        0.05182635366135
C            0.14627164659452       -1.00982244570520        0.07649693778213
C           -1.13563068515293       -1.47432720472201       -0.07185922827833
C            1.22265564343591       -1.98606835003096        0.18355897782853
N            0.93750418323064       -3.31454561473233        0.33926584320555
N            2.50061474300494       -1.70991326169196        0.07868463844639
C            2.86632022705322       -0.43444260976412       -0.06094517902727
C            4.10308720737324        0.17520106175021       -0.18668768087978
C            3.82642182756900        1.55892340318427       -0.20223414846532
N            2.53631279713626        1.85417809671825       -0.10317472638817
C            1.89589614952356        0.66249402055954       -0.02379882477138
H           -3.68098786101387        0.85940326313231       -0.05117313668873
H            0.22301403529815        2.46179589966789        0.12612148413230
H           -1.24920571823646       -2.54809439748883       -0.16778089768315
H            0.12637902784672       -3.60097543664272        0.85890360268666
H            1.76022615684258       -3.88435856409492        0.46189867726970
H            5.06546808543929       -0.29029463791394       -0.24877373090024
H            4.54855740787344        2.35250175031580       -0.28298965698267
