27
 energy: -51.766377896120 gnorm: 0.000918739528 xtb: 6.6.1 (8d0f1dd)
N            3.31834540804401       -3.07118102616601       -0.40467329382692
C            2.69684751609015       -2.11205173822954       -0.29958827498251
C            2.00029443043984       -0.89228705846060       -0.15303287883614
C            0.63847992341984       -0.87644667378113       -0.33642421761329
C           -0.27839978570887        0.17682377436905       -0.09935525588181
C            0.04587221191502        1.57135673070303       -0.01736892864100
C           -0.97322975332994        2.49443677395694        0.26479174297479
N           -2.24726927977801        2.20764825016448        0.43295309631467
C           -2.60298716178613        0.94671414132462        0.30779928407828
N           -3.85430986838134        0.46297128148131        0.40122361033994
C           -3.75774773063841       -0.84203464033982        0.22473224838013
C           -2.42973313158217       -1.29021830123939       -0.00514915721823
C           -2.03575203000355       -2.60705846699408       -0.22292900763999
N           -1.70151390596009       -3.69322899155609       -0.40786225249621
C           -1.64129876316271       -0.13066383165526        0.03947585047519
C            1.36884278427488        2.05952067955493       -0.31950207698663
N            1.48682334443357        3.25657833530646       -0.90683076890810
N            2.50595427528653        1.48968069461892        0.01652102685515
C            2.79448211843056        0.23738253971921        0.26905297539067
N            3.96741072675059        0.00053480954210        0.87229840944312
H            0.18596140733779       -1.83036764696166       -0.58342636371052
H           -0.72730959528600        3.54071873195372        0.40169305308397
H           -4.63337564472115       -1.46593742676733        0.25593302916721
H            0.67466902711317        3.79219105371505       -1.15952350672678
H            2.40654457988303        3.62818554471932       -1.07511872503363
H            4.30127357693816       -0.94092766714782        0.99480448239675
H            4.55216460889149        0.77744903166760        1.12914589439351
