29
 energy: -50.407311996815 gnorm: 0.000970760049 xtb: 6.6.1 (8d0f1dd)
N           -1.74404062201995        3.63892830924579        0.00359460722381
C           -1.09640592865054        2.68802491822536        0.01435705659248
C           -0.23165335872468        1.57945238316827        0.02311040522625
C            1.16954409474928        1.82948496953137        0.02202069110486
N            1.62501703148327        3.10221751086848        0.04856545639703
C            2.00836961578710        0.72258805068023        0.01005984413896
C            3.41339715377971        0.57342675008010        0.00950696373336
C            3.72785911243420       -0.77323124943652        0.01463266912503
C            2.53404370946476       -1.51867122754069        0.01846136890301
N            2.36108689974016       -2.84665455198075        0.01350858243076
C            1.44074551673591       -0.59643977575080        0.01396872011899
C            0.07865650720428       -0.87309604102443        0.03177583949136
N           -0.26701712354750       -2.17405207089962        0.06927522231251
C           -1.48470456337816       -2.67783612417199        0.09560183734444
C           -2.72884499051800       -2.08901375761761        0.05578524384923
C           -2.98962043738608       -0.69647089193635       -0.01447104718896
N           -4.28287148228673       -0.30423853730344       -0.07324860579360
N           -2.14590728167472        0.31437074720113       -0.01712164967187
C           -0.80967175492167        0.29931638182873        0.01963341910190
H            2.60799464432895        3.28433549660487       -0.02786775715149
H            0.97366139322724        3.86616608187602       -0.00455860309931
H            4.13115232029685        1.37510006128777        0.00868455580970
H            4.71852046075460       -1.19001934396669        0.01639633265549
H            3.13606560103593       -3.48132243915806        0.08058692940567
H            1.39034611218691       -3.14436586334427        0.05981568664875
H           -1.47389294096003       -3.76583147945865        0.14793147767334
H           -3.59112469359972       -2.74237733050016        0.07229890693017
H           -4.46730224502435        0.68170657954238       -0.13606381059845
H           -5.03600019041727       -0.96471253725059       -0.11182433871348
