31
 energy: -53.844734819568 gnorm: 0.000266205440 xtb: 6.6.1 (8d0f1dd)
N           -5.37551283292572        0.78015952324612       -0.12679676347079
C           -4.25776676338982        0.49470022009939       -0.09146147365878
C           -2.90255214179413        0.14506733480350       -0.03159939710579
C           -2.60244852941874       -1.23402363111006       -0.15289580109728
N           -3.65318230751997       -2.06492580760680       -0.39554794821685
C           -1.35603811413293       -1.83913370498965       -0.03003074320664
C           -0.05910325356037       -1.33273566523349        0.09245268086298
N            0.86161425153687       -2.30848050791906        0.21874005366246
C            2.15002313012456       -2.03416261991527        0.25341441385981
C            2.62504786235821       -0.75074347222994        0.09647042798752
C            3.90295173084928       -0.13009671182881        0.01064671107904
N            5.10766640897588       -0.74186502545507        0.03380667651365
N            3.79316313785388        1.19025899750678       -0.18475038870615
C            2.47798431251451        1.48131355393276       -0.21657460345194
N            2.08344595158283        2.77226164410654       -0.41545841823668
C            1.67266436167724        0.32703456430124       -0.02252366108353
C            0.29687977054841        0.07680709411175        0.07122890865332
C           -0.60278262942384        1.14431739586407        0.21219067186216
C           -1.98731031830489        1.20752929897286        0.19662033767289
N           -2.53766639406858        2.45089784925926        0.34535855129656
H           -4.59356000618570       -1.70982162854169       -0.37943435187301
H           -3.51224388386822       -3.05835357419473       -0.36910147188461
H           -1.36919688271678       -2.92241619916250       -0.06098968098076
H            2.80470315922976       -2.88844895384359        0.38714866409672
H            5.91852520927250       -0.15218137004392        0.10836237293167
H            5.16719953308951       -1.68100632119118        0.38476591602837
H            1.21891276367364        2.90734125149528       -0.91717757214759
H            2.84090627602213        3.37710037333692       -0.69810842264518
H           -0.12697110809090        2.10066521779944        0.39259857448900
H           -1.95889801041712        3.20200680383912        0.67682268183066
H           -3.53136996119152        2.53590186919065        0.47567306143892
