30
 energy: -54.120276933533 gnorm: 0.000819221630 xtb: 6.6.1 (8d0f1dd)
N           -5.08454160675393       -0.29709019731037        0.44539431566078
C           -3.96665240489292       -0.04368262743142        0.32069527470287
C           -2.61153044408448        0.28722966078406        0.16379794673902
C           -2.35876153291211        1.63522556481582       -0.18409836018235
N           -3.38602069634831        2.39888001179027       -0.60861510402088
N           -1.21911377089666        2.31138644495009       -0.04393132049783
C           -0.03270718657776        1.81497179528610        0.15357334108579
C            0.47136389043304        0.50816094872601        0.03900091703396
C           -0.29201878502818       -0.72979461338495       -0.02362320810336
C            0.45082796698701       -1.92343463829924       -0.26802329043608
N           -0.19481750423849       -3.15157932808618       -0.49307155665717
N            1.76425332118404       -2.02235083316187       -0.30754615135062
C            2.48991600284707       -0.92538397093002       -0.10685067101884
C            3.85290252522619       -0.70029706407355       -0.04343546770397
C            3.98037136985557        0.69535494193825        0.10726584392050
N            5.13515763912296        1.39996885247285        0.16714490785735
N            2.79315288090042        1.34865219047937        0.14424658290080
C            1.86523439607179        0.39397498106344        0.03422938138373
C           -1.67585679762264       -0.78095420892010        0.29443824220660
N           -2.19748751198652       -1.94890083792828        0.71625205791048
H           -4.32688062963738        2.04491094425106       -0.63067129300560
H           -3.21204768329733        3.38017538869355       -0.73914218092706
H            0.72950886910492        2.56305410711926        0.35109047598604
H           -0.93548020006959       -3.11217991757239       -1.18199370099731
H            0.50279908737889       -3.84440265927876       -0.73909239419303
H            4.65041397821059       -1.41262076252524       -0.10120833031377
H            5.98815332787731        0.91463592055284        0.38157060387146
H            5.05968578115415        2.36691030770707        0.43243548340869
H           -3.17324704552018       -2.00836472619269        0.95463221045942
H           -1.59309660808793       -2.75014232163010        0.82078191228240
