26
 energy: -47.236310394875 gnorm: 0.000720162671 xtb: 6.6.1 (8d0f1dd)
N           -5.18375756718533        1.09132186747915        0.47724397432418
C           -4.16735982177493        0.56749286736259        0.35343176529615
C           -2.90763192650886       -0.01391156132189        0.19624769936804
C           -2.62162370680572       -1.35596216230716       -0.07391524473056
C           -1.22884456436931       -1.50730367856056       -0.16012188309250
C           -0.39374861768396       -2.53535576094081       -0.58079723819636
N            0.91826974385786       -2.44001361906100       -0.53114664812559
C            1.49896352005827       -1.31404299294537       -0.11619527657224
N            2.70659448768795       -1.41623317813567        0.38659979148153
C            3.56158570364615       -0.47760451794663        0.73656425691925
C            3.62130326901228        0.83780056786653        0.33436657545818
C            2.54060022505961        1.51858125461407       -0.28275243847532
N            2.77079054056948        2.74820616290519       -0.80276264205780
N            1.26875365257928        1.16772143987634       -0.24378516425126
C            0.73842227912822       -0.03333666502513       -0.06273273215656
C           -0.63259018417877       -0.20954105102708        0.07432079540264
C           -1.68494333053932        0.71586726237547        0.27009634318803
N           -1.52848638901432        2.02984102084724        0.49248641384095
H           -3.35318245530012       -2.13158717097649       -0.20577136493668
H           -0.78471433690798       -3.47487520945987       -0.95050257129203
H            4.37501627451339       -0.85729360122294        1.34836995105392
H            4.52138167867198        1.40479101986015        0.52823782675314
H            3.70831261502910        3.08733705081656       -0.91425720644219
H            2.01782526459786        3.22684939543119       -1.26436219465248
H           -0.59717883262676        2.40366498472442        0.40997771528328
H           -2.32519297761711        2.64135696536805        0.53487302941254
