30
 energy: -50.921153414927 gnorm: 0.000843281935 xtb: 6.6.1 (8d0f1dd)
N           -4.77131573926379        2.14017177075144       -0.00123444486536
C           -3.77044118026468        1.57513377757861        0.00386907640734
C           -2.54721394304039        0.86834287659295        0.00103302353849
C           -1.40943869935148        1.67470701473194       -0.00056514208742
C           -0.04514285388026        1.39926832510065       -0.00260988975701
C            0.81041367587698        2.52030965165507       -0.00374732783538
C            2.18323362352629        2.42987450576777       -0.00624980060129
C            2.78779247981462        1.18013450730710       -0.00832654324028
C            4.11668567419321        0.78215435291821       -0.01587081685064
C            4.14188685418711       -0.62492390268079       -0.02124966541389
N            5.26358835461193       -1.39609145350033        0.02467576003367
C            2.82149631817167       -1.11367555877569       -0.01495879918105
C            1.95169751077286       -0.02739184456751       -0.00732910855282
C            0.54484536743957        0.06070382938837       -0.00337561888504
C           -0.17780363593864       -1.12954355316489       -0.00013693915410
C           -1.53988270789046       -1.41977961181029        0.00146236949189
C           -1.84571912043547       -2.79922504117007        0.00073969800530
N           -2.10331595275529       -3.91935804894268        0.00180730598982
C           -2.65261560214012       -0.54268512946181        0.00202063724625
N           -3.88861934126045       -1.08765503588104        0.00354620016861
H           -1.64773415405913        2.73443232140868       -0.00005456678115
H            0.35298210856326        3.49983323529867       -0.00226406608617
H            2.78665886717306        3.32635482813711       -0.00674109245834
H            4.97681951620496        1.42505129732748       -0.01789199723078
H            6.14365069403823       -0.96276889436188       -0.19622021968928
H            5.17500970696475       -2.37336563296855       -0.19527513648672
H            2.57202067181713       -2.15883616256064       -0.01642614130465
H            0.44049421620759       -2.01944749454636        0.00107521107388
H           -4.70288942241475       -0.49684497941763        0.00527020795130
H           -4.00176216676832       -2.08727014235390        0.00569626355483
