31
 energy: -55.444523335321 gnorm: 0.000826437838 xtb: 6.6.1 (8d0f1dd)
N           -4.94517553024934       -0.34619638896311       -0.04833618837079
C           -3.88761069035939        0.09307806690729        0.02482376514287
C           -2.59462569486352        0.66012887793981        0.10026902344961
C           -2.52227036444380        1.92269070898960        0.70291746828714
C           -1.51691323412731        2.84144246873467        0.56320673006295
C           -0.25263613021073        2.68405278079835       -0.03454352327033
N            0.37179421489083        3.83005471040705       -0.38099343781030
C            0.46694482298007        1.44751209314110       -0.12448694098048
C            1.87760907004052        1.53308209272522       -0.11354775461740
C            2.69811948095337        0.42251860725949       -0.07343103765568
C            4.09950801480630        0.59062749781510       -0.05684590180949
N            5.23607894606441        0.74593124984497       -0.05906035431560
C            2.12897580188453       -0.85542137801766       -0.00072726617441
C            2.68391458649990       -2.12520439840119        0.15385642008400
C            1.64088721113493       -3.03394880648146        0.26228880399789
C            0.41169759735108       -2.36380462071075        0.13748614435988
C           -0.82444280564553       -2.98193670933964        0.30025200713730
N           -1.84892913738548       -3.49378042746451        0.43016517547044
C            0.68458414218368       -0.97476412835616       -0.04423628115336
C           -0.13857404839773        0.15091569579269       -0.17729891065066
C           -1.54190795374099       -0.06574553044596       -0.47685910401284
N           -1.84305067450388       -1.05798459769387       -1.32644512577577
H           -3.42454654431471        2.25473640485582        1.20027410713957
H           -1.73613515669761        3.84529747196738        0.90595540378725
H            1.24916641641305        3.82659296360745       -0.86841922751088
H           -0.09305604431310        4.71044680681207       -0.24492427223992
H            2.35855616277759        2.49759604866281       -0.05443167388840
H            3.73267272696156       -2.34772705726435        0.21249048877596
H            1.73727472863439       -4.09203943184870        0.42679388339568
H           -2.79543858091394       -1.38304377463869       -1.40080921037068
H           -1.11795031990958       -1.67547127523151       -1.65451821608441
