30
 energy: -50.116063562527 gnorm: 0.000770105689 xtb: 6.6.1 (8d0f1dd)
N           -5.05407726096225       -1.11025619526443       -0.18881137406506
C           -4.02993031907328       -0.58705733698407       -0.11675547843068
C           -2.82964142223884        0.10854483895720       -0.04843929276832
C           -2.71905878988452        1.53311630808218       -0.04788292680159
N           -3.78910889017974        2.37853043073262       -0.04190536472749
C           -1.37554202827897        1.89289177234604        0.01318309803325
C           -0.60071196824902        0.72138541135316        0.04588457400361
C           -1.52731572550440       -0.40487745913467        0.01219907170228
N           -1.13698992288424       -1.66817967238777        0.08662898883554
C            0.15564155029181       -1.92415372732041        0.12130682429146
N            0.46507814075430       -3.27469195861142        0.16661146086882
C            1.18714786589028       -0.93273671862421        0.04531894142731
C            2.49562493674622       -1.37303921508835       -0.13496290493543
C            3.70488139565798       -0.70554717788751       -0.20033459824123
C            3.97700494512038        0.65438212486038       -0.03143714202552
N            5.27855575109495        1.04180349617092       -0.05036432968026
C            3.01530049276526        1.66618547728441        0.17057925821546
C            1.64996973649788        1.56693102930003        0.18383095344752
C            0.77282830943620        0.46956353049716        0.08701402984632
H           -3.63135455685011        3.34115348357756       -0.28710697974873
H           -4.68272821516991        1.98955672660810       -0.29451549484069
H           -1.02143382290596        2.90789609856123        0.02142063419703
H           -0.37393615492325       -3.82869579683576        0.27059451045489
H            1.20584493656728       -3.55488177884423        0.78979663047122
H            2.58725177341395       -2.44248068790816       -0.28083733864152
H            4.57372885390270       -1.32777908642471       -0.38160412040626
H            5.51696707042299        2.01673953073435       -0.02421659276772
H            5.99802896581585        0.38382320487684       -0.29107262141751
H            3.42320203281857        2.66320188462937        0.29144590919107
H            1.13392685080790        2.51242273084416        0.29549282531215
