28
 energy: -51.476868957746 gnorm: 0.000805283141 xtb: 6.6.1 (8d0f1dd)
N            5.40081707909865       -1.38157209146318       -0.51629517299835
C            4.29964373270171       -1.08565104856503       -0.37038628185554
C            2.98261863322093       -0.65035345000745       -0.19862460184193
C            1.83598746008718       -1.43000403780312       -0.09337574828919
C            0.72811273283105       -0.56861605568196        0.02877140986388
C            1.21931622567308        0.78862334047090        0.02573304622045
C            0.33575357090378        1.84490908767760        0.27412134433017
N            0.75576249678767        3.12619901868787        0.42370865398046
C           -1.04086118545036        1.55466496948019        0.29529263391189
C           -1.54692615126548        0.27447351943739        0.17078382777229
C           -2.92503861902833        0.08393676532910       -0.16604659360843
C           -3.68630002554787        1.24096243073465       -0.43732833620108
N           -4.33085106244648        2.17133291896399       -0.63535509611421
C           -3.56971365733376       -1.12499615443397       -0.45236108673036
N           -3.25776746041624       -2.34738447859692       -0.09161657573082
C           -2.13878898171652       -2.67376884635037        0.53431185430979
N           -0.96727085936865       -2.11429442219408        0.50832276242210
C           -0.62413552429886       -0.86960100513935        0.19744264013106
C            2.61688767473741        0.72972759773982       -0.14082364803332
N            3.50164387137262        1.76668729332305       -0.20239976310224
H            1.79445455199611       -2.50181299726163       -0.11472624480186
H            1.70926935258812        3.29073651501980        0.69831124749955
H            0.07645648199260        3.80805839475591        0.72072389959574
H           -1.73135756192677        2.38328584641845        0.37377273458361
H           -4.51741019290028       -1.05379129482853       -0.98010309032026
H           -2.17734829573266       -3.62815348244281        1.05324575240644
H            4.45049667828253        1.50995769368315       -0.43505933651450
H            3.18437479825927        2.62764257545110       -0.61962706309042
