30
 energy: -50.112216144459 gnorm: 0.000519830348 xtb: 6.6.1 (8d0f1dd)
N           -5.93600106505264       -0.25649051971562       -0.19417535265481
C           -4.79354316889542       -0.13902673681981       -0.12817895626772
C           -3.39881073660906        0.00389259493385       -0.04591989492697
C           -2.60559004206987       -1.08739690552631       -0.44191554534696
C           -1.24654486640493       -1.23052792364259       -0.34097038360642
C           -0.25221211853320       -0.28121557123588        0.01405894919220
C           -0.52917567347250        1.15175300195089        0.12773720497596
C            0.51968686651116        2.05218858647759        0.00946761333067
C            1.86334113218168        1.67024333665189       -0.08137225682478
N            2.84095595192472        2.62767656143773       -0.19054262228843
C            2.15692078831490        0.30973420451776       -0.02817389110381
C            3.37174487948627       -0.41404009792714       -0.07437403554689
N            4.63150850990515        0.11553849338436       -0.23773899734288
C            3.08277904302469       -1.77180399031673        0.11578625402726
C            1.70655512114790       -1.93769274422822        0.22417588069390
N            1.06860699361300       -3.13219760835698        0.41928996873569
C            1.08426495393462       -0.65169905772245        0.08905372781052
N           -1.70635348300514        1.70233591151239        0.46954375555704
C           -2.90430227353847        1.21447793052479        0.48158892798054
H           -3.15366304095957       -1.94246926069533       -0.82304528510422
H           -0.85327680430176       -2.17498635693000       -0.69338758320298
H            0.27255523251300        3.10259093672683        0.05407402868755
H            3.73658862699537        2.40061817404973        0.21074730482996
H            2.53650986956883        3.57505932473507       -0.02601485759751
H            5.34825036637356       -0.57172570254998       -0.42044527507058
H            4.68825109174986        0.91974562154261       -0.84459805396236
H            3.81189230184778       -2.56061944324824        0.16309239274308
H            0.16162128943843       -3.09207949689244        0.85815250225143
H            1.65538675230249       -3.89094319742356        0.73095689841633
H           -3.64171156209033        1.88525401498538        0.91859441321503
