25
 energy: -47.519607436287 gnorm: 0.000259078202 xtb: 6.6.1 (8d0f1dd)
N            2.69772461544679        3.04927661543938       -0.28897243409071
C            2.15055939116123        2.03977439556299       -0.24316532996804
C            1.57394852262762        0.75450446521116       -0.17171575630472
C            2.44820039013721       -0.30104396406273        0.27381061051289
N            3.60999405730903        0.06109511561903        0.84494721801785
N            2.27425869820020       -1.59324886458468        0.12097756583153
C            1.15098640155478       -2.18925035004734       -0.28657707954798
N            1.30736385595545       -3.42690923478589       -0.78732089397565
N           -0.09477710137854       -1.78974453234016       -0.11432312202816
C           -0.56366750651036       -0.56293545019951       -0.07549320768059
C            0.19672214718670        0.66680898263988       -0.40040100093687
N           -0.41331368943816        1.80133486272562       -0.75980149836104
C           -1.70797765018210        1.95416145493939       -0.61563156719268
C           -2.48730950956686        0.98194688485917        0.00248943663403
C           -3.84435603926152        0.83042026328151        0.33683411904891
N           -4.11322418075242       -0.41577043091112        0.74047925847196
C           -2.97797685152679       -1.11397645217233        0.67954773175084
C           -1.90194527151487       -0.31393290066173        0.24823567381546
H            4.26172883061469       -0.66028173912781        1.09973078031184
H            3.87749432358454        1.02904919029707        0.90252438279554
H            0.49077597138762       -3.98562877315702       -0.96077293877802
H            2.21962058170679       -3.84639322051938       -0.77856068971468
H           -2.12227667591969        2.87882015516410       -0.99605011863042
H           -4.61979412901941        1.57297184003427        0.29438380199396
H           -2.95415458729737       -2.15603397290142        0.93778023942543
