28
 energy: -47.471672674520 gnorm: 0.000667492858 xtb: 6.6.1 (8d0f1dd)
N            3.43659250346344       -1.88759282070879        1.12255923976158
C            2.82254885777089       -1.05546136047604        0.62177466437758
C            2.15913648651980        0.10542273853862        0.15356569548195
C            3.03350021163735        1.19899909557916        0.07159110131083
C            2.76009169599282        2.51110193057221       -0.22506280361593
C            1.49251388932146        3.09113808159531       -0.36987024312917
C            0.26236682034447        2.50874302600375       -0.24480992359963
C           -0.13704140030805        1.15434561080041       -0.07302457265459
C            0.76093558918235        0.01510160516876       -0.07585024472883
C            0.20360298189078       -1.27873830608919       -0.23436935697139
C            0.99678291493907       -2.39735859950624       -0.56722635645685
N            1.51492198632234       -3.34976705033195       -0.94665453566791
C           -1.17367012824488       -1.51856153715585       -0.18159364719268
C           -2.02589101246570       -0.46403534990185        0.02397166165381
C           -3.43736266792019       -0.38192144342259        0.15819572200205
N           -4.30443970319939       -1.42241077951029        0.13963511244663
C           -3.77184350324474        0.98140499419376        0.26173507028860
C           -2.62207827234762        1.74467888738563        0.19126222613609
C           -1.50258612831731        0.88987979304532        0.04954981185991
H            4.07335498597148        0.95076057756602        0.25268565745621
H            3.60720863145706        3.17771061873342       -0.31212506518930
H            1.49197008130548        4.15595962948754       -0.56905327498945
H           -0.57481378946595        3.18682095857865       -0.34293400726990
H           -1.52843515411007       -2.53324622125783       -0.30116700561992
H           -3.94955265124347       -2.35875629970699        0.22027306113786
H           -5.26196889577265       -1.26335408487546        0.39939914763111
H           -4.77084074899938        1.36000568318100        0.38021577280221
H           -2.60285930837987        2.81681969161373        0.25772365473897
