33
 energy: -58.881600072842 gnorm: 0.000909659403 xtb: 6.6.1 (8d0f1dd)
N            6.13278463874232       -0.07286880257828       -0.65568658353669
C            5.02585322458232       -0.30317719120306       -0.44452463019922
C            3.66632700114938       -0.51756953242422       -0.20900742151205
C            3.03398243295114       -1.71935968097764        0.07733862961567
C            1.65042631097756       -1.46395240863306        0.17657012800046
C            0.58391677884600       -2.29205402466639        0.44264853059442
C           -0.71003147948401       -1.76787758621246        0.38598652558792
C           -1.75626410215836       -2.64590029758980        0.74029958740563
N           -2.52907698352157       -3.39367069169416        1.14403792399847
C           -0.97503835598015       -0.40208673981676        0.10896003824544
C           -2.29590846445766       -0.04525858237239       -0.25101687303458
C           -3.09611505944618       -1.08348138464110       -0.77765381804554
N           -3.78110026025827       -1.81945864402573       -1.33758796678792
C           -2.94110695749705        1.22058174771270       -0.24102134631919
N           -4.24007459754260        1.25479256761727       -0.62887322751122
C           -2.39540045228857        2.42212633015852        0.20783347457448
C           -1.07211954206218        2.72636539923260        0.51459060859483
N           -0.80807452125949        4.01304906996377        0.89395764754676
C            0.04287079711612        1.89121553319463        0.36106318606436
C            0.14283597577179        0.52593842347079        0.12041379045866
C            1.43009358369694       -0.04860973336200       -0.01850536020562
C            2.68513106962006        0.52588534031523       -0.28137749257902
N            2.99404622269881        1.82710690963186       -0.56859834813626
H            3.51114321542794       -2.67473365584159        0.18804853923522
H            0.72309644996570       -3.33947230355209        0.66749515097766
H           -4.70378213366468        0.41911990246563       -0.94054246317559
H           -4.74205230708377        2.12307122795066       -0.64079906984749
H           -3.09519090489874        3.24637197080314        0.28386952361416
H            0.09326995857440        4.22831994494329        1.28232884262183
H           -1.57144828616594        4.60654195113361        1.16619378951933
H            0.98665954079311        2.38285223372763        0.55716232755887
H            2.29058130789969        2.36741673193821       -1.04963115240716
H            3.93815940025532        1.97544250913326       -0.89678879901606
