29
 energy: -55.214176892995 gnorm: 0.000618018879 xtb: 6.6.1 (8d0f1dd)
N           -0.58054434509569       -3.65936400508776       -1.53732820096509
C           -0.22183943699712       -2.69292041392415       -1.03009351159185
C            0.35541366782170       -1.51371252341406       -0.51785983299335
C            1.74515230998321       -1.52082982845772       -0.36837517498412
C            2.36664308019187       -0.37381656665769        0.06796122434001
C            3.71863065725330       -0.00046146086565        0.33932624523231
N            4.80305902711962       -0.78665580812902        0.32636177321064
N            3.81363635099884        1.31634559468082        0.62341811825927
C            2.58705154540848        1.82355267309492        0.53783054623439
C            1.62434069110513        0.84822831686275        0.20943026832201
C            0.25065958115182        0.91762589589926       -0.05470718967790
N           -0.29255534992266        2.10693730518726       -0.24011824849508
C           -1.56104601274506        2.41847449503751       -0.41487934074333
N           -1.78984220036521        3.58640110169833       -1.04530976965782
N           -2.64916629167535        1.81579003077767        0.06733649719896
C           -2.73774422482416        0.54094622635697        0.37751139647472
N           -3.87887043858494        0.19704885477615        1.00304068617479
C           -1.80529470373010       -0.51119565450250        0.05610909143798
C           -2.33723265092891       -1.80069057601339        0.24779109717228
N           -2.88107574721271       -2.78362069603939        0.50027673802439
C           -0.43415519063175       -0.36880760440706       -0.22442041517600
H            2.28915299117714       -2.42986643999076       -0.58398590425293
H            4.73412479422940       -1.76186561959681        0.10043847667636
H            5.69833644831262       -0.37167065894084        0.51424812848501
H            2.41545541243272        2.86796118206740        0.71937026475963
H           -1.00618515529935        4.16356813770918       -1.29260806463720
H           -2.72320664056352        3.95518460399827       -1.06565806803646
H           -4.56410907603400        0.91579692613489        1.15730543236111
H           -4.10689782607438       -0.76643483415431        1.17989473404879
