30
 energy: -54.926862587423 gnorm: 0.000861343887 xtb: 6.6.1 (8d0f1dd)
N            2.51402124741064        3.14562052596057        1.03979947405691
C            2.23649837638699        2.09381672035019        0.67104956085895
C            1.99532969788100        0.74730560370108        0.31685835561432
C            3.09106689268007       -0.09300858243298        0.59454804444134
N            3.30423745492978       -1.34098182639910        0.29490121810475
C            2.38893266094900       -2.13091464016064       -0.30302377604756
N            2.91271932526271       -3.19359687784420       -0.94521460575604
N            1.08083764400542       -2.08082438247838       -0.23751388453911
C            0.27828541401321       -1.05007147051786       -0.00788544624816
C            0.68232773943384        0.36216847654217       -0.05478515293044
C           -0.29948029409060        1.33029356222917       -0.31297758483221
C            0.04097366389529        2.63854992855398       -0.70180082141263
N            0.17996035845633        3.69737270805680       -1.13000409540803
C           -1.69474886058579        1.03817997806183       -0.26539063921601
N           -2.59840786775043        2.01544781844195       -0.52555247734904
C           -2.06714645345556       -0.24845065611313        0.11215603428242
C           -3.32990714871812       -0.85496978320501        0.32923211433526
N           -4.54705274022787       -0.22299480968547        0.34771777661797
C           -3.12168032993059       -2.23946816686327        0.48747693768561
C           -1.77234197230238       -2.50883222989497        0.39484090606172
C           -1.08072659557633       -1.29357690707433        0.18239370791156
H            3.93190969867501        0.38183644828651        1.09411540554480
H            2.29677798576413       -3.90587942415706       -1.29317751766144
H            3.90060192362843       -3.35940104107406       -0.87620032996149
H           -2.25158750921626        2.88243590720991       -0.90811164470811
H           -3.53192319927363        1.74175484588124       -0.78093815067112
H           -5.31614562791562       -0.79600555474312        0.66202144381193
H           -4.56202619193479        0.71530750351926        0.71803218797371
H           -3.90212995215444       -2.95667993023707        0.66688617876638
H           -1.30374965223921       -3.46987681541152        0.48619758997731
