25
 energy: -42.721718954237 gnorm: 0.000491718494 xtb: 6.6.1 (8d0f1dd)
N           -4.07832897466467        0.87832394701169       -0.00944376649881
C           -2.90110944013340        0.23487655941043        0.00854696381857
N           -2.83752087969691       -1.10153688799462       -0.00187930310959
C           -1.52782428843220       -1.42804409460679       -0.01117755236579
N           -1.03697223652095       -2.65972849490454       -0.02080528325497
C           -0.69364400481160       -0.26718441451786       -0.00477314387125
C           -1.59684137166995        0.84338740795813        0.00661465306163
C           -1.08750813941826        2.11825573771048        0.01303365172192
C            0.29933859001191        2.26326730722907        0.00817399650234
C            1.19894781674520        1.19643372822692       -0.00201994886453
C            2.59801989775683        1.49675236423835       -0.00102456991045
C            3.65621720120631        0.63181459432171       -0.00369319921236
N            3.71782377744487       -0.70680003240153       -0.01522161275539
C            2.67064829158443       -1.50070070276435       -0.02578983705817
N            1.36993544376662       -1.33356884027788       -0.02183597386476
C            0.68757472595274       -0.15655037539815       -0.00951006890342
H           -4.11405641422064        1.87272120757260        0.12099772712646
H           -4.91961929330886        0.33497184513955        0.07201710106131
H           -0.01718570502262       -2.69437605756835       -0.02844552138312
H           -1.63607691320895       -3.46574933837556       -0.03164381650517
H           -1.71992665499698        2.99500325387508        0.02025492463333
H            0.70955426163007        3.26376808294368        0.01296627328440
H            2.83995114880566        2.55287968258150        0.00639121447179
H            4.64889748156962        1.07688269537637        0.00328785804066
H            2.95048779193177       -2.55690768348585       -0.03929334506454
