25
 energy: -47.528451732900 gnorm: 0.000659673808 xtb: 6.6.1 (8d0f1dd)
N            4.28100254815502        1.44510577207262        0.28087871904497
C            3.21969015680794        1.01546547563887        0.19429958965605
C            1.89348414601307        0.55141542908985        0.10715253387515
C            0.83565925916996        1.46951723507131        0.03007848194871
N            1.12407787695563        2.80643293788620        0.00173937992617
C           -0.52468676096102        1.03703449611138       -0.04332488680649
C           -1.51649488846626        1.97353412404321       -0.40918736990414
N           -2.78665612960898        1.96192462158918       -0.12968896872664
C           -3.48091655660528        0.98049741684646        0.40958175716345
N           -3.32355761555362       -0.30471816399104        0.28399825788865
C           -2.18536418859581       -0.92250963465474       -0.04758768485105
N           -2.27526461878769       -2.20779906869113       -0.33593143092898
C           -0.84228843932050       -0.36920434962527        0.03236783984695
C            0.22320544505965       -1.25313950659941        0.03138912704677
N            0.23589583794061       -2.61428207213863       -0.02214560341792
C            1.52889376202388       -2.92073958475357        0.01798751159685
N            2.38944212089571       -1.89801706693756        0.07795306944581
C            1.60353081974342       -0.81830697088693        0.08606431617524
H            2.08436874583545        3.06514480110798        0.16381610143515
H            0.42811342996870        3.47485931130070        0.27844162951290
H           -1.19602314424526        2.86077300690055       -0.94925267769101
H           -4.39011094359790        1.29060699677227        0.91679634469236
H           -3.18559757583480       -2.63956475529917       -0.31989091592464
H           -1.38328350649895       -2.75123949960908       -0.33557854154997
H            1.86878473520753       -3.93952211763946       -0.00995644275527
