29
 energy: -56.009179893706 gnorm: 0.000602574600 xtb: 6.6.1 (8d0f1dd)
N           -5.59618838525706       -0.96452015137137       -0.65169285137148
C           -4.53441219199680       -0.56177148729952       -0.48301552705606
C           -3.22214261038501       -0.09420883801026       -0.25830625350113
C           -2.90800582082998        1.19445675183434       -0.69205393316607
N           -1.94887200174989        1.93693803198439       -0.21513272540192
C           -0.85631174303121        1.61630134367529        0.41951643200647
N           -0.34087833553753        2.48987014726062        1.28202742749008
C           -0.15694599719132        0.35256212534007        0.17326815958709
C           -0.88573537560390       -0.86730228181648        0.24861548495770
C           -0.13364449178772       -2.07442490122264        0.16257593386530
N            1.15650349090705       -2.14899329802746        0.01779014394886
C            1.84913555205881       -1.02158776072067       -0.06025855503746
C            3.23835470775770       -0.82688633263461       -0.19241847322305
C            4.21713391083550       -1.82417687053782       -0.23257864794892
N            5.03634308175529       -2.62872790068366       -0.25854667898358
C            3.46878615234428        0.55382720275017       -0.27644989260679
C            2.25833113475674        1.24650808237222       -0.16996531461140
C            2.10715272266579        2.62841609780838       -0.24926575030287
N            1.95387914674957        3.76992400312052       -0.27719338215266
C            1.21592020337615        0.28814077468783       -0.01710963163670
C           -2.31054902017493       -0.98205783655549        0.37495534889027
N           -2.81843174455564       -2.07265201233780        0.97045210309817
H           -3.58840458340107        1.70023048285724       -1.36681647188206
H           -0.76279403076986        3.40279652270161        1.35381282801524
H            0.60604093308393        2.38735296877082        1.60918190371049
H           -0.64712287598054       -3.02667758794199        0.13461193583717
H            4.43213257867997        1.01406108009072       -0.40285606266683
H           -3.80834436314803       -2.25653898982180        0.91939109006518
H           -2.21592061436983       -2.77760472017245        1.35917618087643
