33
 energy: -62.106957850073 gnorm: 0.000795406204 xtb: 6.6.1 (8d0f1dd)
N            2.58308983574216       -3.72540310310658       -0.04173391323492
C            2.26057700838191       -2.62052223148471       -0.04623675115631
C            1.96536033979971       -1.24474380784825       -0.06114355200738
C            3.03183842626545       -0.38768395522776       -0.44028712895414
N            4.11750947504850       -0.95323395206575       -1.01378438011762
N            3.14376846495294        0.91288566186015       -0.24999163322389
C            2.22756876606440        1.74980674162624        0.21315738601034
N            2.75531894610449        2.93598731226095        0.59772204884581
C            0.81901465912566        1.59892152821276        0.27390923309450
C            0.13659192705377        2.74231569832317        0.68060996412442
N           -0.39885205162403        3.71119698173862        1.01656685693245
C            0.03990349400557        0.41949047061719        0.06664436452526
C            0.61302621394738       -0.91890704417835        0.18900127201722
N           -0.13067687341638       -1.97796983787274        0.49862051119366
C           -1.45591197642682       -1.92759977929157        0.50424708456582
N           -2.10595811045668       -3.06838313387442        0.87368232805698
C           -2.10338299520125       -0.78233011340022        0.04453860187696
C           -3.43359423245154       -0.46221524027966       -0.30313397691156
N           -4.51565044849567       -1.27924459050018       -0.26008101806787
N           -3.54552725412778        0.81972859296869       -0.68555474308167
C           -2.33233559765631        1.38100614539474       -0.59060845935676
N           -2.17784074537650        2.62940308089617       -1.06747537414689
C           -1.33994310596878        0.42802632717496       -0.13686964031579
H            4.92231365519261       -0.37390945755714       -1.17309923932821
H            4.19585110788493       -1.95400974784437       -1.07066400198712
H            2.17403317623189        3.69731261444462        0.89953307534429
H            3.74478429067310        3.06457058500568        0.48742737135448
H           -1.50524386102480       -3.77105896363273        1.27710843078889
H           -3.02340729240387       -2.97567034587137        1.27700734062499
H           -5.34116112052891       -0.90793346077162       -0.70387042171840
H           -4.35282553222182       -2.26636341869450       -0.37576078856499
H           -3.05154542294780        3.07630617355532       -1.30303343022405
H           -1.45676289494622        3.22921005002256       -0.69398944235873
