33
 energy: -63.690811513072 gnorm: 0.000666986043 xtb: 6.6.1 (8d0f1dd)
N            4.81336277489757       -2.79560566085059       -0.39002569156435
C            3.98946630833833       -2.00383496938179       -0.27864671803691
C            2.96016265501589       -1.04390792367256       -0.13943548033719
C            3.36853472749987        0.20374505350204        0.32485431579307
C            2.66447267181345        1.38829467346687        0.28556072536153
C            3.38726645223829        2.53818592019332        0.68567836708920
N            3.96693687081271        3.47044133286696        1.01999566074199
C            1.33300372271401        1.62105828935693       -0.18148929831304
N            1.00502858418492        2.86457402443313       -0.48941437349217
C            0.27852731615771        0.63243277726071       -0.20800383324963
C            0.43075558099015       -0.79042336938056       -0.11251219755451
C            1.65469916921343       -1.47559010573454       -0.45717035232698
N            1.55192755391996       -2.64743724234643       -1.10447755564995
C           -0.70617360138630       -1.59813360499961        0.18566838061420
N           -0.56464389414605       -2.96235441590591        0.43497632849866
C           -1.99930794457035       -1.06357857940101        0.21788403871906
C           -3.08845992996780       -1.89454010378000        0.55231032865193
N           -3.93557235177507       -2.60956685033782        0.85016960935565
C           -2.18583241727530        0.28838025424506       -0.07665063685151
C           -3.30255734561592        1.13967084315960       -0.18712528129913
C           -4.65486583859846        0.80760432687413       -0.08567772803021
N           -5.77200252364406        0.55132271633361       -0.01176123222916
C           -2.76706851280265        2.41300112252844       -0.43605073933895
N           -1.43655624392667        2.40707637848029       -0.48481784321118
C           -1.03507037365853        1.12761376477600       -0.27284215099703
H            4.39777506784085        0.26967111956788        0.65934753649067
H            1.67941604442344        3.60418064189170       -0.35816151752373
H           -0.02792858649020        3.05392464137198       -0.61620390342277
H            0.64758629595940       -3.05908099365242       -1.27469632535662
H            2.38258968020789       -3.17285469607492       -1.32684067736164
H           -1.40991920989094       -3.39137041966091        0.78872119389347
H            0.25370638749044       -3.23684272706741        0.95891264064642
H           -3.31553452236896        3.32442975203798       -0.58846338491129
