30
 energy: -50.134761709968 gnorm: 0.000429882155 xtb: 6.6.1 (8d0f1dd)
N           -4.19666278795767       -2.40268830979722       -0.61822614260844
C           -3.26540085962951       -1.75823926743827       -0.42774178011444
C           -2.11844749412762       -0.97763335031041       -0.18389597274817
C           -0.87709552128431       -1.58121612147020       -0.08012348768491
C            0.32135074911348       -0.86902955775843        0.12693148474764
C            1.49870238104905       -1.68322904171774        0.34305757248286
N            1.27583632875486       -2.96062110549255        0.77728745618338
C            2.80612423687808       -1.36185620365383        0.06080037781507
C            3.36279417177338       -0.13050335717534       -0.31765522765032
N            4.68637633712550       -0.14371511915068       -0.65948505107354
C            2.74352320800098        1.10525128133596       -0.21591516600925
C            1.43921227244648        1.43994724531079        0.15701810660136
N            1.18965970293390        2.72467684580340        0.41611600515955
C            0.28958890677462        0.55448434882960        0.17016551421322
C           -0.98395304221962        1.15851817625028        0.15934350413003
N           -1.28327950829621        2.47195214569342        0.27380848679236
C           -2.61915892249798        2.57396735241400        0.17085761276168
C           -3.24049693796850        1.34955332345499       -0.01250839463705
C           -2.20629508678971        0.40966112608679       -0.02256379166203
H           -0.83397308900098       -2.65017660302329       -0.22964939372961
H            0.41414873950254       -3.17307176476833        1.24765984151290
H            2.07434919106454       -3.51643491417568        1.03159072094344
H            3.51853502663574       -2.17463941339154        0.15304121920997
H            5.11733984700394       -1.01835259230096       -0.90095230100372
H            5.09230972541391        0.68620457323404       -1.05420982891182
H            3.39055612092583        1.95726121928545       -0.40037987100834
H            1.92385864308660        3.40114038292797        0.28670654960648
H            0.17148883467777        2.99515208678256        0.45029409513538
H           -3.08415094520122        3.54203849987086        0.24128995542461
H           -4.29065403858717        1.16043146954484       -0.11946694527912
