25
 energy: -47.522129394924 gnorm: 0.000740454339 xtb: 6.6.1 (8d0f1dd)
N            0.64376956703895        3.80365301057746        0.78958549018944
C            0.27662039785123        2.73280807827025        0.58992340677588
C           -0.24053551167606        1.44645725123826        0.36008052923053
C           -1.63774775091415        1.29375551056574        0.17801413617874
N           -2.45537269706083        2.34839364075086        0.30623464168305
C           -2.11852685523578        0.02216138127090       -0.18958754219822
C           -3.38933524335168       -0.48269850541545       -0.47840526896505
N           -3.35976988942320       -1.80782048049188       -0.69686335000508
C           -2.10543650014039       -2.20993847143416       -0.53089660918484
C           -1.25354139214136       -1.12995757479316       -0.21567694473038
C            0.08473204290429       -1.02350551273253        0.16120091386864
N            0.77653068965739       -2.03305654842205        0.63429546966422
C            2.04548204997430       -2.08833235952484        0.96385238600510
N            3.06776113254171       -1.43338635667736        0.47382555290086
C            2.89230528939136       -0.29153121902755       -0.20995362222832
N            3.91404658755662        0.09052297598497       -0.99172113273658
N            1.90209018635015        0.58254702984469       -0.08755274871583
C            0.63841380428032        0.36195911755725        0.19650353855913
H           -3.43597891391086        2.25289557678554        0.11128100516353
H           -2.08010436842942        3.25411856718752        0.53620211327381
H           -4.32389115870804        0.04677638274286       -0.53561799681584
H           -1.83083420969516       -3.24035467270760       -0.65436521599562
H            2.29694824999377       -2.89100003536549        1.65093105113058
H            3.91219510649559        1.01850775403710       -1.37744361182603
H            4.75635693975251       -0.45702700622192       -0.98455912482174
