28
 energy: -50.691688343575 gnorm: 0.000755572406 xtb: 6.6.1 (8d0f1dd)
N            2.77580838248393        2.77275662978175       -0.10383270297011
C            2.45418331860193        1.66295763936799       -0.10164413370554
C            2.09016537545722        0.32892696759223       -0.07360498000113
C            2.99957718691168       -0.76558984279065       -0.15190625653501
N            4.34877668056922       -0.66757798216051       -0.15484305294034
N            2.38925581201849       -1.95568751833844       -0.14885171109968
C            1.07906742729941       -1.70216578621255       -0.10160623612904
N            0.11398904608840       -2.60341517694702       -0.13333669847942
C           -1.12200915516555       -2.17742458112867       -0.05075703466089
C           -1.53540630474384       -0.83126858367714        0.06214539583535
C           -2.94617171115177       -0.56551106600966        0.11994534674041
N           -3.75265425638771       -1.52635459834337        0.61450014632697
C           -3.56336122574301        0.55648913445470       -0.45163608863907
C           -2.93042621278138        1.73527434286131       -0.79389154964749
N           -1.80865072653370        2.19628222643485       -0.29744481240336
C           -0.84132504621571        1.56450319991687        0.31528309499588
N           -0.08427545115887        2.27534717391613        1.15828582861909
C           -0.50842548493389        0.16745815404704        0.07875253463605
C            0.80669088815630       -0.26471326387170       -0.02682887697854
H            4.85771095835285       -1.50594440297320       -0.37585955554083
H            4.76635891288667        0.21696804976551       -0.38820385480178
H           -1.86288852339721       -2.95921458944792       -0.16767310756204
H           -3.37357160384257       -2.39208546027565        0.95565775571143
H           -4.74959558685928       -1.44271304702992        0.51592034085975
H           -4.62462829663781        0.47986822005197       -0.65064004361622
H           -3.45567016852746        2.44619981254498       -1.42207680689837
H           -0.22770035191837        3.27160297432552        1.20098474124799
H            0.80883082936753        1.92052759754984        1.45897110863957
