29
 energy: -50.388641448527 gnorm: 0.000705623668 xtb: 6.6.1 (8d0f1dd)
N           -2.30212210825673       -3.68144236468880       -0.43312642356915
C           -1.71916225905702       -2.70091890001930       -0.28250858707838
C           -0.98948016724828       -1.51178483666789       -0.11678105846847
C            0.41174706104978       -1.54756174903954       -0.09298239758324
N            1.02667360785432       -2.81135336006357       -0.18222971244135
C            1.19006082341082       -0.36715607350232        0.01567145894881
C            2.58245286608864       -0.44314481524432        0.30934280791422
N            3.07394203354090       -1.56757914764909        0.86940471447328
C            3.56166958537793        0.52836829080427       -0.02399734626429
C            3.38182892930100        1.81145402598517       -0.46903786482162
N            2.31050296347526        2.58624889315701       -0.34818024738685
C            1.11254456542345        2.19836452857731       -0.03258207677363
C            0.50377384236463        0.92308039009733       -0.02558778299306
C           -0.88989979901256        0.93390273221584        0.02774196706488
N           -1.70055990192542        2.00564336245546        0.05924763148563
C           -2.95282850984654        1.51414632362433        0.08577084180449
N           -4.01707266550627        2.34842908938214        0.19752777758119
C           -2.99682334330058        0.10077905848017        0.04626068675433
C           -1.67372610447263       -0.29320772029120        0.00373377744809
H            1.79639660637098       -2.84887615368907       -0.83740253697347
H            0.35238484770212       -3.54283572180237       -0.37501622998243
H            2.44836009127094       -2.31396781915015        1.12998921533471
H            4.04430551294506       -1.61407949226457        1.12520059674520
H            4.58497660127228        0.17598234017282        0.04257621786806
H            4.24704717288572        2.33715807457283       -0.86144294870653
H            0.41641180917268        3.00908193166677        0.16280061521064
H           -3.83731931428303        3.32394376170435        0.03079996383535
H           -4.92574345237418        1.99566465393868       -0.04779654891602
H           -3.87529259492589       -0.51388517196533        0.04792999679033
