27
 energy: -46.959831007115 gnorm: 0.000543523900 xtb: 6.6.1 (8d0f1dd)
N            5.33502214788914        0.85003783880344       -0.01150818636275
C            4.19518658323376        0.69264226873849       -0.00784404325307
C            2.80924072147559        0.45823318107990       -0.00312168518380
C            1.97411970211339        1.56607972780995       -0.00639883266157
C            0.59175440167037        1.61636686887239       -0.00221315618370
C           -0.35044861837358        0.58429198375865        0.00158367101722
C           -0.03279583056532       -0.85245919866986       -0.00007636196322
C           -1.06821660404870       -1.78211076798687       -0.00499591656933
C           -2.42550329936831       -1.45063654883504       -0.00546732344612
N           -3.37268418684780       -2.40749274979428       -0.00904854132998
C           -2.75627379441328       -0.08447370989907        0.00013099367951
C           -3.95375816759990        0.63302045016180        0.00253238349402
N           -3.73123750714333        1.95909960920039        0.00773402565449
C           -2.41669658542501        2.13802575440900        0.00829408543185
C           -1.71582548531563        0.90678815612161        0.00368333153739
N            1.18045307960370       -1.41775837143050        0.00428237407477
C            2.38709861826152       -0.91891177822186        0.00616871158731
N            3.36441378649773       -1.85457849873918        0.01732959664408
H            2.48249100602708        2.52396567543315       -0.01217382285582
H            0.16971523640514        2.61254393029818       -0.00392237211231
H           -0.78232878514890       -2.82348247004409       -0.00733772769535
H           -4.34422803550727       -2.15585485722713       -0.01196307521463
H           -3.11645000019089       -3.37861711196030       -0.01606403874779
H           -4.96255201636149        0.25956093395959        0.00083475620349
H           -2.01545447778890        3.13503873026477        0.01259504379905
H            4.33666712900927       -1.60109521971620        0.01492952047308
H            3.08988744291164       -2.82055596648699        0.02058370058320
