29
 energy: -50.403526840416 gnorm: 0.000464539748 xtb: 6.6.1 (8d0f1dd)
N           -2.16150771853524        3.74313142724326       -0.25375295788442
C           -2.03068256542667        2.60295735975895       -0.19832002749132
C           -1.94308305910698        1.19551307197417       -0.12225821537381
C           -3.14812283816913        0.50670285391423       -0.34724270661863
C           -3.40364476466586       -0.82858947192116       -0.23870944779611
C           -2.46750001879134       -1.83500804835519        0.15075123088953
N           -2.98115966902868       -3.05161386102883        0.46244700878771
N           -1.16329544278650       -1.78449187779529        0.18722451115747
C           -0.32268366006168       -0.75465529861014        0.05846151176878
C           -0.64503027549493        0.67887660392563        0.08938118993662
N            0.29512025568692        1.60489447694990        0.25475732625353
C            1.59125221049999        1.30543459398937        0.24663043028444
N            2.43604972348322        2.34981707591828        0.46519499757155
C            2.02664547914608        0.00648192645741       -0.03171565872619
C            3.28469368168227       -0.60276538773547       -0.19272218842461
N            4.50495940493059        0.02911762888081       -0.21196393222060
C            3.07706554126728       -1.99874191260145       -0.28976008239399
C            1.72987035840306       -2.26649552687888       -0.21004218002861
C            1.03470902964756       -1.03902355841635       -0.06503724794529
H           -3.98671756798131        1.14232374058729       -0.61007125196703
H           -4.41463531855234       -1.16739049517213       -0.42213951930901
H           -3.96965206322664       -3.21727714727258        0.47791231599294
H           -2.34456556032051       -3.77617373312932        0.74161142953509
H            1.98431158088716        3.19462896618840        0.78000380140374
H            3.35045155506652        2.15230516694560        0.83517085975792
H            5.27316547987382       -0.54008981174224       -0.53457174544942
H            4.50941047759152        0.96767823932912       -0.58214443366449
H            3.86312993671850       -2.72156817685988       -0.41807950062805
H            1.26334171846442       -3.23150921634228       -0.25999479871716
