30
 energy: -54.924190399994 gnorm: 0.000558918096 xtb: 6.6.1 (8d0f1dd)
N           -4.08247782298959       -2.31963056431884       -0.24415946384992
C           -3.06650055438230       -1.79349165233570       -0.14604079602076
C           -1.85941801460664       -1.07393038619360       -0.03712053336438
C           -1.89220599345629        0.32234834064520        0.01231519950227
N           -3.15014611438609        0.95738856633113       -0.02714898694691
C           -0.69549223653446        1.08533021436569        0.09690333374677
C           -0.79064748021985        2.52889407440816        0.22369184542470
N           -1.83933943103678        3.03662011503986        0.89208065343963
C            0.06199028541451        3.43295429578821       -0.42081661936804
C            1.32145686818387        3.13953251561203       -0.91429427613368
N            2.10211393977651        2.19703073870102       -0.45904186650304
C            1.80030683934299        1.14677597433893        0.26088068000558
N            2.71980541113465        0.70299099606030        1.12016584211565
C            0.55826843310313        0.40225470518793        0.10117974571702
C            0.59229858603587       -0.98664913793230        0.02129235980650
C            1.60957655874196       -1.98386977613459       -0.05728680912342
C            2.98851440526639       -1.83368062703557       -0.10432619913358
N            4.13451629153899       -1.70415541437464       -0.11753866368050
C            0.92029822464384       -3.20420789967642       -0.13534904814765
N           -0.40432191216057       -3.06538769114036       -0.10409842349775
C           -0.63454722176053       -1.74996317572524       -0.03211802352883
H           -3.89628551551495        0.28178510756158       -0.15028025148008
H           -3.21759103358106        1.68547751396653       -0.72743296669795
H           -2.56514581423191        2.41932661704834        1.22575881667630
H           -1.98406713733306        4.03155150900136        0.91526465105750
H           -0.30621768223950        4.44320959545250       -0.54369316742840
H            1.79230516571243        3.81529449724002       -1.61782299988739
H            2.63383317645832       -0.21411044051934        1.52772503794425
H            3.63958974616719        1.11467411275482        1.09347929287875
H            1.36472092181233       -4.18011636761744       -0.21296067792237
