28
 energy: -51.499640343532 gnorm: 0.000812304418 xtb: 6.6.1 (8d0f1dd)
N            4.91113400853729       -1.72596773843322       -0.41476525144614
C            3.91477053248835       -1.16473709819435       -0.28243630670749
C            2.72828321269086       -0.45404602059237       -0.12812302511899
C            2.63362096126021        0.95805410782323       -0.03568871741487
N            3.66977699236209        1.81702116226368       -0.07080895554561
C            1.26965261832959        1.31322890831012        0.11708060953317
C            0.84531408336291        2.63516555468799        0.20470904986882
N            0.56068812438355        3.75008832303507        0.26814061388026
C            0.50224308289735        0.12342776262464        0.12010688354216
C            1.42604976288963       -0.98131628704560       -0.04075847990697
C            0.95851336649588       -2.28991645721683       -0.04876887910344
C           -0.39155810816304       -2.52092271533365        0.08896736988000
C           -1.33467305059031       -1.48099091489830        0.17949420783092
C           -2.68594613105358       -1.84897784423907        0.35149544771982
N           -3.78740289980059       -1.17186406486783        0.17883969642308
C           -3.85868886974420        0.13725060055527       -0.06876530438480
N           -4.98034023085255        0.56204304319419       -0.66433581771130
N           -3.02327256906618        1.09526070505753        0.34426770475200
C           -1.74321955450917        0.97525552688027        0.51998391117281
C           -0.87470877587333       -0.10366278574259        0.21721134281180
H            4.60121467553098        1.47290733526370       -0.22249885143728
H            3.50499618452090        2.80723995196612       -0.03266902469275
H            1.65313535708490       -3.11106728537825       -0.14856729596697
H           -0.75744165994927       -3.53721428812550        0.10549074533423
H           -2.87005859474313       -2.89447768296495        0.58614098345066
H           -5.13411016920795        1.54920168035424       -0.77453277899118
H           -5.69896717938180       -0.10182595596492       -0.89379843708004
H           -1.27692744779726        1.87824884398639        0.90314278841219
