33
 energy: -62.903405825861 gnorm: 0.000885398998 xtb: 6.6.1 (8d0f1dd)
N           -4.63789964094444        3.02353140414206        0.06833245369862
C           -3.89435575424787        2.14712628619595        0.06873452185709
C           -3.03576711885768        1.03168864157430        0.05725912807625
C           -1.68592486039296        1.22304114864468        0.25188571410941
C           -0.61389834905128        0.31799568696586        0.16104236949920
C           -0.68607022356032       -1.12778424318501        0.10999916207729
C           -1.92485005802396       -1.77712139281477        0.43949611356543
N           -1.89495873251834       -2.94420079667815        1.10593618164530
N           -3.14217074912253       -1.40258508874504        0.08968097651707
C           -3.64043923354994       -0.24152430507558       -0.24062674017765
N           -4.85248911516648       -0.25118668875405       -0.81999980457481
C            0.48493726783371       -1.88516293812424       -0.09656088261739
N            0.43277181538399       -3.27454244052543       -0.19413302012841
C            1.75022501762143       -1.26966894877011       -0.17984553977685
C            2.88361500327495       -2.06347330180120       -0.43332260924457
N            3.77080637794226       -2.75817724943732       -0.65973132919005
C            1.86353261901447        0.11181330819600       -0.01449435645001
C            2.91797673457131        1.03069260169412       -0.00224942608901
C            4.28944942262958        0.83509988337234       -0.10927266448329
N            5.43481641558931        0.74434347847718       -0.18185160979478
C            2.28735297776457        2.30271904283166        0.16828607602202
N            2.91872663016196        3.48680605864783        0.22000461170311
N            0.95059368925137        2.21237036686868        0.25483978227311
C            0.66040519427377        0.90524788253459        0.15619568007692
H           -1.35925454975935        2.24502424306509        0.40730761061093
H           -2.76816951117640       -3.36486063949536        1.37279830316175
H           -1.02060163110235       -3.32695272067421        1.42547187153357
H           -5.31070239887814       -1.13088862273816       -0.98295453848065
H           -5.34337942586250        0.61036533202835       -0.98931162438644
H            1.30485692260087       -3.68287661501716       -0.50526241609490
H           -0.36739101875185       -3.64925272017805       -0.68226346592957
H            2.38399549089028        4.31431274815934        0.41175889893419
H            3.92237405176788        3.51861233663088        0.23641312605537
