30
 energy: -54.930862711119 gnorm: 0.000628516283 xtb: 6.6.1 (8d0f1dd)
N           -5.16951911903680       -1.16707288062234       -0.22732679780239
C           -4.16121802262626       -0.62558444906673       -0.12294684969717
C           -2.91798309439717        0.02841402689854        0.01766271746306
C           -2.98874338752448        1.32738609428621        0.54154664364401
C           -2.02283481199485        2.28870025598428        0.52904614398588
C           -0.69060444667945        2.20109650023553        0.06164339639689
N           -0.04658196606928        3.34368139016208       -0.14262220223209
C            0.08086355959153        0.98986778765743       -0.08639154043276
C           -0.40737156848807       -0.35956429688000       -0.07333620858185
C           -1.78018709952685       -0.69844713564344       -0.37719225672322
N           -2.00041257075132       -1.82192188661645       -1.08326465202164
C            0.51063188233771       -1.43300533398676        0.10683959221576
N            0.05025727224957       -2.74413519287595        0.27507579247737
C            1.89806644719682       -1.23700860247829        0.10890303887388
C            2.76594962668661       -2.32304833080797        0.33225716393656
N            3.43123211576568       -3.23710679270825        0.53416214904958
C            2.39538424372198        0.04975019565190       -0.09935859914940
N            3.64790930352019        0.52545354217580       -0.18139141371330
C            3.47787882660532        1.83763220505664       -0.30410008974601
N            2.21628145530642        2.27806029229384       -0.30268479778648
C            1.47049044181505        1.14945281506442       -0.18086932202681
H           -3.96589486134006        1.62043352720097        0.90616006900296
H           -2.31982332739655        3.27485526434656        0.86473252421707
H           -0.50526946249135        4.21613487597193        0.06341341648697
H            0.98989739142767        3.28025075599677       -0.30186300309031
H           -2.94478630309202       -2.11223636170522       -1.27878851860230
H           -1.23530372168538       -2.43904092371882       -1.30602424719079
H            0.78752366160261       -3.38180555636558        0.54738365320360
H           -0.77042526751779       -2.84580786281111        0.85537836039945
H            4.30806975939066        2.51230070420547       -0.40278499035728
