27
 energy: -51.763864232120 gnorm: 0.000728785189 xtb: 6.6.1 (8d0f1dd)
N            5.32602121125717        0.28625424301755       -0.51349434097736
C            4.18947477939405        0.38331906613709       -0.38385114372744
C            2.79282162747310        0.47346753859745       -0.20738935925418
C            2.15878275357171        1.64864387170965       -0.61651226787187
N            1.02022328915769        2.09243809767234       -0.16634115579388
C            0.02808158861531        1.47447197924201        0.41606374026822
N           -0.74419566070835        2.16669664164621        1.25061598127349
C           -0.29805488577245        0.07907072796190        0.12411402917216
C            0.72773534197194       -0.90871393723585        0.17164279525081
C            0.32793984043411       -2.26391874251840        0.01465738184955
N           -0.89348097013039       -2.68343967944073       -0.15443667976863
C           -1.86470274159755       -1.78731511110486       -0.18924091352758
N           -3.17120910945955       -2.03050720434005       -0.31247331479964
C           -3.77143005979199       -0.84505388622815       -0.34227851135950
C           -2.88504972978144        0.23902563788603       -0.20203253146386
C           -3.21407829958535        1.58850451387433       -0.20359155068644
N           -3.45942786071606        2.71424222977305       -0.16257589259043
C           -1.59930603241656       -0.34824795608244       -0.08893548309407
C            2.12851532542695       -0.65023019523046        0.35140827586440
N            2.88452012188742       -1.59383598925217        0.93370413040935
H            2.70201482225278        2.34134917234419       -1.24868192378156
H           -1.64782299179580        1.81334618161167        1.52239386757010
H           -0.58317717130046        3.15714855565883        1.34739306192047
H            1.08190722791511       -3.03807955646426       -0.05319390994129
H           -4.83852731266832       -0.77696728853636       -0.45548381806265
H            2.47401175896064       -2.44908215696961        1.26734528920073
H            3.88910584160809       -1.50959018182939        0.92189652973031
