28
 energy: -46.659543060970 gnorm: 0.000750001697 xtb: 6.6.1 (8d0f1dd)
N           -2.76294642721934        3.30777970525561       -0.05002628333118
C           -1.99790208350900        2.45021275578596       -0.01980877255526
C           -1.04772025963666        1.41291058337898       -0.00480225801532
C            0.31431217541803        1.71529117653839       -0.10727233122154
N            0.69303740328302        3.04647484609782       -0.16159202289701
C            1.30023654313099        0.68216524582160       -0.04027947217308
C            2.62884986451597        1.05778096816288        0.11919201461655
C            3.77863698719307        0.28476947156805        0.29739087479178
C            3.87935685388332       -1.08976380667160        0.22657936878218
N            3.00180482336153       -1.95450693043885       -0.25995442595078
C            1.73524820801407       -1.77557272412576       -0.47587625560869
C            0.85076880127422       -0.71643218858303       -0.13450399496805
C           -0.50195446459653       -0.99325879441799       -0.03160633827080
C           -1.22187538530401       -2.20369402270658       -0.00255577238091
C           -2.57503469192652       -1.89855493031388        0.12119141439970
N           -3.60539491678173       -2.79475302325022        0.13042067341601
C           -2.73845211119352       -0.48705688755316        0.16214465401648
C           -1.48513918290838        0.08016598496243        0.08212809176004
H            1.48866177406321        3.27714075233522       -0.73401964579314
H           -0.07640120334169        3.69250883702112       -0.26180074756979
H            2.79917376983221        2.12062314449664        0.23436102559443
H            4.68237693706424        0.82596008171448        0.54564361914608
H            4.81670729866424       -1.55241764475627        0.51721190089436
H            1.25936775232712       -2.62981418792854       -0.95020386635155
H           -0.80955805979696       -3.19441734257175       -0.03245192040369
H           -3.38000853512131       -3.75589337204807        0.32502370572367
H           -4.49420647781528       -2.47158283845166        0.47360989561303
H           -3.67626794603442        0.03199667306999        0.23140528353488
