30
 energy: -54.920053664921 gnorm: 0.000830559553 xtb: 6.6.1 (8d0f1dd)
N            4.86746036689567       -2.36015377499877       -0.60776608632560
C            4.05968550088308       -1.56237597968528       -0.43784071320312
C            3.06481071115068       -0.58486115912737       -0.22342097268898
C            3.42663642223215        0.74841238129933       -0.39564729999021
N            2.76972611031829        1.79551941273553        0.03853831025186
C            1.52700546087633        1.91361584080355        0.43147380766988
N            1.27643763763440        2.95351633080359        1.24231596154316
C            0.40147611370878        1.08053848891897        0.03450882830119
C           -0.84103238921044        1.65145042001976       -0.20824830179427
N           -0.99704981310008        3.03413221459075       -0.29654171900872
C           -2.01270252630753        0.84641927520816       -0.31520371086563
C           -3.24063599698716        1.45816065190187       -0.62439179455742
N           -4.20832149746890        2.01379889723311       -0.89828095993603
C           -1.92944380370316       -0.51145605457684       -0.07297611909821
N           -2.91838286509618       -1.42115915475327       -0.06275006302451
C           -2.32312188800286       -2.59103645254211        0.17593435124136
N           -3.03670252783964       -3.72530266693771        0.30863903690110
C           -0.90383305521441       -2.47567611285407        0.32045991701077
C           -0.62695677340012       -1.13474532399407        0.17544754937350
C            0.56784316001498       -0.36285312823142        0.11123073804959
C            1.77078528758341       -1.04772372740977        0.08914348682092
H            4.39554975534478        0.97484605242865       -0.82747109007970
H            0.33156799734229        3.18506545447619        1.49810898918564
H            2.04325925879574        3.53151679440477        1.54106773937880
H           -0.23804727832807        3.53134688860766       -0.73844999892758
H           -1.90169234945923        3.31301675917401       -0.65226420262001
H           -2.57285914532313       -4.61556844700812        0.30687564754161
H           -4.01726661799561       -3.68487070952192        0.09260708541330
H           -0.23840911756566       -3.29356861012592        0.51716954938393
H            1.69221856672070       -2.12214974784634        0.19770070765231
