30
 energy: -54.144631520922 gnorm: 0.000614789986 xtb: 6.6.1 (8d0f1dd)
N           -5.01664848393339        2.22566911340515        0.86945300546677
C           -4.02225075902685        1.68433596423129        0.66077602982154
C           -2.85402466168751        0.96393732330435        0.41405991341860
C           -1.54652083330233        1.44469377098156        0.37750295217245
C           -0.68641905994640        0.35913457493764        0.13836263958584
C           -1.49333790262733       -0.82292373819416       -0.00496156281233
C           -0.89526136888270       -2.04033978757320       -0.37787611655331
N           -1.64913032089556       -3.14828409112322       -0.64256125859224
C            0.49636219947052       -2.11310235355961       -0.39350186426510
C            1.31407809240201       -1.02216844546858       -0.11004231612985
N            2.59042905413221       -1.26943105633303        0.16559687914403
C            3.54919649029419       -0.38898465783547        0.41148190719580
N            4.61458031868462       -0.89140586764991        1.07597780394173
N            3.68567387979926        0.87602058252640        0.01711780372812
C            2.66708933628375        1.61075810844185       -0.40822000591864
N            3.00537718691009        2.76020105085793       -1.03287683625721
N            1.35725978477477        1.45395089669953       -0.22972210233964
C            0.70424043743800        0.32621507267561       -0.02922991502226
C           -2.83261312184830       -0.44560466280477        0.18639976069236
N           -3.94968754001097       -1.24250431640065        0.13167194741747
H           -1.24344357470564        2.46294663247587        0.52862472753423
H           -2.59244035313246       -2.99439200261297       -0.95928709726652
H           -1.16903310340612       -3.92964772341601       -1.06045578161163
H            0.97694354854203       -3.06464065936860       -0.56798094332161
H            4.65277050256268       -1.88170015697059        1.23590035636445
H            5.44682433139372       -0.33418864524839        1.13862133770290
H            2.28425616460113        3.43711051269783       -1.20606402009477
H            3.97136398522477        3.03297412039503       -1.04605542047337
H           -4.80194245941643       -0.78126208312243        0.41894439603812
H           -3.84997617479152       -2.17801187964755        0.49618716183485
