24
 energy: -38.995031008137 gnorm: 0.000559280088 xtb: 6.6.1 (8d0f1dd)
N           -0.68908076438321        2.33501358623044       -0.88677880979891
C           -1.15009249082179        1.24942761214185       -0.24812601774836
N           -2.37892915337575        1.34279823244430        0.20885958923688
C           -3.22945862607740        0.40591314432418        0.53097401843799
C           -3.16562360138800       -0.94447461829212        0.19308460396832
C           -2.02227537376864       -1.62698260979494       -0.17118361108768
C           -0.67853554144827       -1.21241495712965       -0.15656881688588
C            0.29707473320042       -2.23533542503287       -0.27916913552654
C            1.64220487350724       -2.00588443166247       -0.17106506654080
C            2.09080987368807       -0.70455330815006        0.05936100526191
N            3.33614502361064       -0.25940262398408        0.19088594038290
C            3.23464254259254        1.07384065531655        0.37979506339861
C            1.93621626533510        1.53975272026237        0.32287920790057
C            1.12960138386793        0.39353588496913        0.11874591145657
C           -0.22869842717611        0.15250652527433       -0.03887520519385
H            0.26194406259702        2.36272001636031       -1.21247706658976
H           -1.30143002720304        3.12034937443005       -1.02456401668008
H           -4.11804059695926        0.77459220154882        1.03262768345042
H           -4.08073388343079       -1.51427511805959        0.27898064430340
H           -2.16006244022299       -2.68318710324004       -0.37515701464927
H           -0.05775463189370       -3.24564252158597       -0.42442022881447
H            2.35501194422855       -2.81255152548929       -0.24418482148041
H            4.12590968022759        1.65552649269087        0.53927089869186
H            1.62086011299406        2.55355105612776        0.48781578610658
