29
 energy: -55.993687393617 gnorm: 0.000899120422 xtb: 6.6.1 (8d0f1dd)
N            2.88047808193879        2.84336843480971       -1.44974527858236
C            2.00295042919254        2.29577258309497       -0.95203065736385
C            0.82405083496287        1.69427324760418       -0.46065858163504
C           -0.29285385460331        2.51331623740470       -0.32820660595973
C           -1.47432417392979        1.94341202585488        0.09803424127109
C           -2.73818345363848        2.46830764753253        0.43532377663685
N           -3.59277376360479        1.51861610456231        0.78184427686854
C           -2.96663564135785        0.32776123910866        0.64652755214409
N           -3.60154326343802       -0.76748095437016        1.07138324486698
C           -1.60479801305610        0.50774350090379        0.19859218289770
C           -0.53602499279667       -0.33076566417329       -0.09583526646237
C           -0.71959416122727       -1.69917691658527       -0.48680290372331
C           -1.99034513909630       -2.07017215240215       -0.95747790539163
N           -3.01936532868031       -2.40931310709151       -1.34556969559271
C            0.24101653816678       -2.69848107800249       -0.61518073638274
N            1.45877409418539       -2.76203878128715       -0.14310047262703
C            2.18683397897358       -1.76645740409276        0.33843365938771
N            3.27940612332295       -2.16052470421518        1.01471009429699
C            1.98318053502455       -0.36668498451553        0.11020879648417
C            3.11791467771841        0.41208613440860        0.42027935563603
N            4.08134182618408        0.91975276004490        0.79237948684721
C            0.77514419391232        0.29777663239904       -0.18660831110054
H           -0.21162480613001        3.57191093132433       -0.52354689789340
H           -3.03354960330284        3.50121678921156        0.44190989818569
H           -4.56477474743184       -0.62655111217039        1.33532860862091
H           -3.31974506021293       -1.69210710173493        0.79010077993967
H           -0.07921781493883       -3.61816123843838       -1.09745214415697
H            3.46126251752031       -3.14794664762349        1.07549437576421
H            3.97890496124291       -1.49962588956159        1.30913101842392
