24
 energy: -43.795236634462 gnorm: 0.000505970637 xtb: 6.6.1 (8d0f1dd)
N           -5.15624154296966       -1.54827342803131        0.44543804756457
C           -4.09541379079099       -1.11610374314282        0.36006264899498
C           -2.80518420827060       -0.58186350453984        0.25113153586823
C           -2.50958983572164        0.79286703691894        0.09252494896924
C           -1.12850414593514        0.92130309821964        0.03824957377326
C           -0.25636382046807        2.01005519258571       -0.19202354600026
N           -0.70338875419488        3.23625994242722       -0.48975936191101
N            1.06708472666786        1.87606846849604       -0.09190865306596
C            1.61506325307463        0.70025645288425        0.15003015102373
N            2.85489906462596        0.71171777850942        0.60211334599462
C            3.73285803794821       -0.24288755022357        0.65728109795170
N            3.82672694802368       -1.32559212317476       -0.09373243065622
C            2.79644289623090       -1.95236179422995       -0.61095539924795
C            1.43796116372058       -1.74854684316974       -0.36437561517022
C            0.83289393655939       -0.56245622013509        0.05171888662139
C           -0.55382642495572       -0.40159956372185        0.14518458548443
C           -1.61608728847792       -1.31335230830157        0.26626895258723
H           -3.24511883887968        1.57382484009391        0.02712083474765
H           -0.02913632184156        3.97428999930492       -0.60184509512868
H           -1.68595150957419        3.44176913619571       -0.49497912982374
H            4.58168089487702       -0.05965988099830        1.30969316720215
H            3.06857035935128       -2.79812567873805       -1.23560419009652
H            0.76553141888762       -2.54406608290840       -0.66224769785075
H           -1.53903778358696       -2.37777162912067        0.38565957986828
