28
 energy: -46.674046406089 gnorm: 0.000930450783 xtb: 6.6.1 (8d0f1dd)
N            2.49768296542342        3.17987027008539        0.00207900329804
C            2.02262589739881        2.13288524567939       -0.00817392096918
C            1.56345857087074        0.79190474259284       -0.01089745471439
C            2.58121657376069       -0.19576244365970       -0.01747998271497
N            3.86568091942425        0.24877077683298       -0.07671222487319
C            2.39575606092058       -1.57354793926871        0.00321653901775
C            1.21432737384366       -2.31634958762208        0.02566997377828
N            1.35337741034028       -3.67580040744709        0.09877182149537
C           -0.09760966315968       -1.83330467675959        0.02242396019097
C           -0.61786646077738       -0.54457563744834        0.00578431478079
C            0.15970700497882        0.69482806133479       -0.00155950011603
N           -0.41462717585382        1.90528133319871        0.00100599768735
C           -1.72751608184098        2.04255903419595        0.00060807009511
C           -2.58553457274336        0.96151266335637       -0.00580317829176
C           -3.98986977761193        0.82831737631781       -0.00973100752709
C           -4.28393682420004       -0.52548848544529       -0.00811983300954
C           -3.09684592256930       -1.26411616382256       -0.00233770666678
C           -2.01772662201430       -0.36777688680596       -0.00146844773914
H            4.62578876752962       -0.39702207867561        0.03548229526868
H            4.05685434812204        1.23326280750517       -0.00187718523477
H            3.30907672471186       -2.15857409405493        0.00265342769024
H            0.54763055623595       -4.25597268516290       -0.05393812614012
H            2.25259016216951       -4.08912092239122       -0.07313881783177
H           -0.85130875330120       -2.61184012145766        0.03685736124275
H           -2.08586638204196        3.06517796356695        0.00415182134562
H           -4.69526893468451        1.63857553873836       -0.01344326979112
H           -5.27205160391108       -0.95097371236217       -0.01045229778321
H           -3.04638130082064       -2.33849418972084       -0.00012000158789
