29
 energy: -45.594016310045 gnorm: 0.000590285465 xtb: 6.6.1 (8d0f1dd)
N           -4.22239011535037        0.70315991556538        0.70564091798256
C           -3.00237272981137        0.28679196285742        0.26601886265186
C           -2.73134835224323       -1.08742531631494        0.22230372648818
C           -1.51457494335983       -1.68106923884898       -0.03990224242946
C           -0.23321614486576       -1.12814514222668       -0.15497628233348
C            0.87761158554170       -2.03760757246480       -0.22072409173924
N            0.62841595180445       -3.40912855214542       -0.40204431843562
C            2.16243433037631       -1.60271025418984       -0.00884134044087
C            2.42834081157809       -0.25153306262173        0.23118547585597
C            3.59398693934127        0.44827316498996        0.48290695629387
C            3.26851023684243        1.81729415253888        0.55846705439449
C            1.92354890997194        1.99648325482571        0.31883356548493
C            1.34274869002857        0.71676484941086        0.11126546784955
C            0.05034527794164        0.28528478367519       -0.13681694519544
C           -0.97382569493449        1.24130986286962       -0.52469533554863
N           -0.55566013302571        2.28563954064988       -1.26455130375819
N           -2.24701821600029        1.25894270162327       -0.22759109408228
H           -4.35699905644352        1.69227387746929        0.82084773099162
H           -4.80270336819370        0.07479565986298        1.23058620718218
H           -3.56345045145684       -1.74329992212527        0.44384496446082
H           -1.53636468091772       -2.76287925630609       -0.01927764330313
H            1.48517749881452       -3.93931155477397       -0.48432991541331
H           -0.00194581986941       -3.62132911650509       -1.16339170538340
H            2.97814937454751       -2.31474287269737       -0.02278502355382
H            4.57510704551747        0.02848861677652        0.61126398434874
H            3.97232391618497        2.60483611216180        0.76966161377659
H            1.40029750792484        2.93531319826070        0.37432241296250
H           -1.22293250224324        2.98491800513297       -1.53802500472668
H            0.42005197089942        2.38382169454946       -1.48466752617990
