26
 energy: -47.232550171233 gnorm: 0.000629763352 xtb: 6.6.1 (8d0f1dd)
N            0.94182475905620        3.19578640353895        0.99416693834444
C            0.25241039472396        2.32995483946581        0.67183829264510
C           -0.61381839075563        1.29676499970122        0.29180462792881
C           -1.94081123224934        1.71282019213670        0.18391546618697
N           -3.03742129489926        1.08868255368941       -0.16337557720812
C           -3.17668369925599       -0.23498611561992       -0.26360251982636
N           -4.39851046803058       -0.61000964575082       -0.69908869565295
C           -2.27148540290471       -1.24393416379021        0.10016855394766
C           -0.89095821071400       -1.20409349396127        0.28779994583698
N           -0.37218360697191       -2.41676572360236        0.56725908528473
C            0.92341951414393       -2.61322880370102        0.53999574405725
C            1.80284367670842       -1.61482500871175        0.15473934335819
C            3.18041391266279       -1.55796905500388       -0.09758906425220
N            3.56494106337337       -0.34204332088939       -0.46783293778598
C            2.48422137122159        0.46509893213487       -0.43981999650449
N            2.62689520233699        1.71361215208967       -0.91130842903895
C            1.30203020471988       -0.26674685249381       -0.04279970314667
C           -0.05195222031729       -0.01567608488326        0.13882885118411
H           -2.10886261284424        2.77221840578319        0.36901343890022
H           -5.07370680598173        0.10881976956419       -0.89234923825903
H           -4.66492172463033       -1.57618503491561       -0.74021017870936
H           -2.67658829507415       -2.24649742334345        0.15794329363509
H            1.26200345819146       -3.60970485387484        0.79457050377603
H            3.89116466591864       -2.36138571931010       -0.03334441992468
H            3.58437322274690        1.96287518863583       -1.11155271078819
H            2.01663189822487        2.45964065311178       -0.61046006148846
