29
 energy: -51.200354997030 gnorm: 0.000839870907 xtb: 6.6.1 (8d0f1dd)
N           -5.16327923793976       -1.07800516247221       -0.32795485758362
C           -4.06006285766752       -0.76021956924480       -0.24962566080356
C           -2.73107625596465       -0.32262062010722       -0.13970202503165
C           -1.71373197352115       -1.21001290414688       -0.42394217986127
C           -0.32956484400049       -1.04359578618530       -0.30094395350801
C            0.38240964392027       -2.19922182755400       -0.67190648356430
N            0.92855950587008       -3.16618510553566       -0.97581159599620
C            0.43183100297353        0.13265216670652       -0.03670144135935
C           -0.18475980789549        1.45510610829432       -0.18626640093446
C            0.61495084909696        2.53461504248019       -0.56076277939759
C            1.99682327144988        2.44575119389504       -0.60124636199111
C            2.60331385825780        1.27903769192695       -0.18745898271039
C            3.97098617693776        0.94574816171773       -0.01492311666787
C            4.05300020556317       -0.33360941309574        0.47704813699120
C            2.74998782150487       -0.87421395303919        0.60479309133165
N            2.50373267471700       -2.03156970490297        1.24423596225659
C            1.81568563300992        0.11664985293998        0.14702092925198
N           -1.45202154764188        1.75123478143891        0.10989309863716
C           -2.51807900779560        1.03825756498415        0.30013114153045
N           -3.55128394236709        1.66139650393618        0.91153154500649
H           -2.02830555146446       -2.19796398860113       -0.74634415342667
H            0.11732801945874        3.46894874124395       -0.76706554763965
H            2.58967684857765        3.30406109389358       -0.88136662236786
H            4.79542277500213        1.59921783184690       -0.23319422895425
H            4.95087397044365       -0.86083782759806        0.74243086922571
H            1.60399913853362       -2.47714003918531        1.18898018075883
H            3.29002358400399       -2.62621636484592        1.44789259137605
H           -4.46472894202091        1.24081987290213        0.92006746751438
H           -3.45603111753405        2.64120311921649        1.11466564651859
