34
 energy: -62.613488366152 gnorm: 0.000791403089 xtb: 6.6.1 (8d0f1dd)
N           -5.96334836254527       -0.32912697355747        0.99896472328602
C           -4.88115054155347       -0.05405777040818        0.71999960311976
C           -3.55469378817573        0.26861012744199        0.37896857754545
C           -3.18499065920066        1.60487779406599        0.55894145226661
C           -2.00276962777178        2.23336453347981        0.27057939555330
C           -0.74181804003537        1.70101439200785       -0.07089615068936
N            0.18290230154695        2.62929868543936       -0.29918672194879
C            1.47209953977034        2.32483127997734       -0.39827560306100
N            2.31516905871354        3.35290349719181       -0.71080229887661
C            1.91485950782945        1.03864298021232       -0.08693649753520
C            3.19479006031915        0.49466334466252        0.13477923503344
N            4.38354846501868        1.15305643936021        0.10761502296675
C            3.03037561456965       -0.88798773473738        0.38336005249043
C            4.06041580687230       -1.77254530562121        0.69537308944745
N            4.92114781667110       -2.49075899451760        0.95669288064898
C            1.65927354934487       -1.22060254757698        0.31450018911027
N            1.19786500957964       -2.43331831506428        0.67986107828969
C            0.93031857466045       -0.01897269859013        0.01482934872692
C           -0.42481587584059        0.28248696789297       -0.12868205164745
C           -1.39717225231226       -0.71997323434667       -0.45557670649838
C           -0.89264236965291       -1.81707052824225       -1.16743984701519
N           -0.51433955961985       -2.71704197270274       -1.78292100739103
C           -2.78332945715380       -0.76417871429177       -0.21814737711595
N           -3.44387322639594       -1.90467576887114       -0.53751695779772
H           -3.97938713743702        2.23855148993146        0.93718144396639
H           -1.98062868779090        3.30822476499412        0.38888247273316
H            3.16813683910389        3.12348075130614       -1.19402821315384
H            1.84472546850613        4.18983612261467       -1.02012120103358
H            5.18295464112981        0.64426207222189        0.45368419437852
H            4.37207966608325        2.14045160361584        0.30640991629166
H            0.26939922288710       -2.72937278679718        0.43544595170611
H            1.88519827064177       -3.15996343378353        0.80480831899988
H           -4.44284535535133       -1.94826141099647       -0.42914298096054
H           -2.97409638831159       -2.64824174981321       -1.02486034493531
