25
 energy: -38.704795372706 gnorm: 0.000482983066 xtb: 6.6.1 (8d0f1dd)
N           -0.56393566015529        2.48276936206349        0.55970018408057
C           -1.13666346170077        1.31316317540473        0.18733928097237
C           -2.51596586110701        1.34819644036160       -0.02788369610767
C           -3.39909124152299        0.33335177678105       -0.33940378366450
C           -3.16320689795701       -1.03293227796301       -0.31506929396681
C           -1.97638741050639       -1.67395092250093       -0.01993631972711
C           -0.67314908568019       -1.17992037978360        0.10178065913066
C            0.33728196239738       -2.16939837445753        0.28883473856458
N            1.62284084663274       -1.96710151727317        0.30177412938660
C            2.04651254571184       -0.72962641395257        0.06303064924702
C            3.35091584017051       -0.25580765978084       -0.03400277371555
C            3.28253088177193        1.10616505683752       -0.34257281482690
C            1.95859046923440        1.52037645644039       -0.38990103277941
C            1.13228701402980        0.40284481495642       -0.13034278036664
C           -0.24159024933296        0.19750232884399        0.00404054050786
H            0.38927343971572        2.46663381060742        0.88803921469956
H           -1.15317908973935        3.25001748509023        0.83505679736547
H           -2.94972958821651        2.34053109471041        0.04098819860782
H           -4.41448488720602        0.64159437194688       -0.55391176517010
H           -4.01810187411086       -1.67006901288418       -0.50132585389481
H           -2.04662767182159       -2.75329127581337        0.06069474166152
H            0.02660268479863       -3.19863030592578        0.42130308556071
H            4.24145822931690       -0.84304897615100        0.07992883448137
H            4.13199552627273        1.74307150008192       -0.51916237755145
H            1.64418407090410        2.50182233435974       -0.70004941319487
