31
 energy: -59.442983917855 gnorm: 0.000903314901 xtb: 6.6.1 (8d0f1dd)
N            3.88322620175478        1.52252748762729        1.34404683343330
C            2.83252993029530        1.51352109255665        0.88072792052489
C            1.49409368866673        1.58310902656288        0.43024658606523
C            0.90175198199159        2.82486679683542        0.64749083965054
N           -0.24146905024461        3.29827495577646        0.22307624653349
C           -1.23314999487569        2.61479965399117       -0.32869940314319
N           -2.14565471578639        3.39108870729261       -0.94682519506642
C           -1.48162501995235        1.21368462873356       -0.23228791851646
C           -2.76712900512546        0.83974115417698       -0.63802634540351
N           -3.83992254092091        0.59392246300999       -0.98366850329073
C           -0.56298012134373        0.16983936665783        0.05412716067697
C            0.88045715672213        0.37181059889626       -0.01155112404286
C            1.70276838789322       -0.70147691257175       -0.37390881630965
C            3.04234183698254       -0.50243104030973       -0.76115820889143
N            4.10631474217843       -0.46572526504759       -1.19506706826151
C            1.23317045030639       -2.04689572736049       -0.42359098898972
N            2.04967764665531       -3.04274020275823       -0.80294806976470
C           -0.07679001928349       -2.25743575512828       -0.00073816153555
C           -0.82121282976136       -3.42138988193575        0.25932881389593
N           -2.04058573400083       -3.14211925005972        0.69083948763751
C           -2.17780305829915       -1.79658604559692        0.69367724780277
N           -3.28877138827113       -1.28660771010317        1.25008658718683
C           -0.97421246633559       -1.15377133208213        0.24624422646175
H            1.50524571044599        3.56324864037108        1.16745625703536
H           -1.99499337502186        4.38477737094511       -0.93851710203662
H           -2.99258386280553        3.01088594660247       -1.33177369511995
H            3.00878938315453       -2.84762679117429       -1.03878146192426
H            1.73265839527929       -3.99475137045098       -0.77234242720080
H           -0.50572036772458       -4.44456543008475        0.16265229054038
H           -3.60649484076459       -0.35644679540856        1.03610223158840
H           -3.99324036550826       -1.97396020216274        1.46904988536444
