30
 energy: -55.719808540931 gnorm: 0.000942208016 xtb: 6.6.1 (8d0f1dd)
N           -5.06944239375362       -1.74639042890817       -0.57665837458135
C           -4.11854234643546       -1.13431381399649       -0.37726204134322
C           -2.95169921333361       -0.37450909612603       -0.12569783055797
C           -1.77565507358613       -1.11314275799707       -0.09363370475588
C           -0.43522397588179       -0.76973721608642        0.07506193033403
C            0.50295496880415       -1.85054406739316        0.14683499801506
N            0.07364550650490       -3.14945548040766        0.26403049710965
C            1.88191195345448       -1.61946564375147        0.03314679130156
C            2.77905642719182       -2.70578588496469        0.08770191412113
N            3.46559879955018       -3.62303913459716        0.15364852403272
C            2.35984992608427       -0.31293300550274       -0.09997098473385
N            3.62486297853109        0.09924769849803       -0.22123489707336
C            3.57757192868070        1.43173005213692       -0.23962613651164
C            2.27304751918511        1.94208249111857       -0.12214091224297
C            1.93530854932501        3.29191275397900       -0.11514254801385
N            1.66756029462327        4.41220534387513       -0.10826577375191
C            1.43045878051344        0.80065085277320       -0.03593686800093
C            0.05381147248265        0.60424005251246        0.08700427673283
C           -0.75316027420376        1.75082499432314        0.23380992723257
C           -2.10889452445263        1.93951660646767        0.28746535407817
C           -3.14937832514961        1.01352793423943        0.10217907521113
N           -4.41298764669173        1.47598085347058        0.13022916638357
H           -1.95076945329195       -2.16823197769600       -0.27541819225882
H            0.80325098503508       -3.83949749049412        0.36304416288008
H           -0.76604655776250       -3.34839971355198        0.78086922550257
H            4.47965681594922        2.00794361997675       -0.33839987325514
H           -0.17861595758703        2.66454207747420        0.32658482773793
H           -2.43544705815682        2.96037567089035        0.44456665947575
H           -4.59191527742977        2.45585879038336        0.26497710564421
H           -5.19133285460470        0.85820684483975       -0.03243475681253
