30
 energy: -54.926121369359 gnorm: 0.000692643953 xtb: 6.6.1 (8d0f1dd)
N           -5.12650360106811       -0.61169319980292       -0.05054853891185
C           -4.00458942668520       -0.34981002971911       -0.02076790301267
C           -2.64461837487955       -0.01347435208366        0.00484335556737
C           -2.31243668020624        1.33590850159272       -0.32465011801385
N           -3.26288177828415        2.08727285973940       -0.92591033796459
N           -1.21355536865164        1.97525852189258       -0.02510976197950
C            0.01720486721032        1.57087906381241        0.25325765930293
C            0.89298792744185        2.58576805356220        0.67766222759063
C            2.25751075287541        2.41690743088140        0.68819803787934
C            2.77440258580258        1.21837072864089        0.21998112497446
C            4.08831382197526        0.78006090560293       -0.04121630721218
N            4.11071946780659       -0.43649194760592       -0.56107860563070
C            2.83083404682435       -0.87696464435581       -0.62434303899831
N            2.60674354006042       -2.02537435097564       -1.28265134564501
C            1.91527135184102        0.11340599320677       -0.11728080408076
C            0.53075348221597        0.21342475861761        0.06172338780196
C           -0.30618756664157       -0.92023177982976        0.25697194991604
C            0.35659007850128       -2.11765879025503        0.54891363953511
N            0.86425395346620       -3.12880246665118        0.77809130052502
C           -1.72308694088009       -1.02145531486010        0.34049064597003
N           -2.23909702697659       -2.21856379893882        0.70636027914455
H           -3.07947631549393        3.06769565954231       -1.04538895842185
H           -4.19738094885122        1.73674122737555       -1.04384994077433
H            0.44777468755962        3.53523355282529        0.92987881384069
H            2.91441611565521        3.22148743544514        0.98345101513520
H            5.00133317335608        1.32059828736842        0.13053753103767
H            3.44970232051054       -2.51626542382448       -1.54083757655394
H            1.79366087195188       -2.58872594462642       -1.08978957798876
H           -3.23640685749084       -2.34333268663059        0.73719655613477
H           -1.63982046974186       -2.99574761524846        0.92275847843181
