32
 energy: -58.371495951436 gnorm: 0.000854541939 xtb: 6.6.1 (8d0f1dd)
N            5.22593680720333        0.95490464019242        0.40872916028527
C            4.18733402989848        0.47375404979807        0.27780187316505
C            2.92788864471812       -0.13161961757926        0.10035744655628
C            2.98428654745341       -1.48721572620261       -0.29890279343471
N            4.19419730800219       -1.99711069806426       -0.62115830537806
C            1.89729547877325       -2.37511671099197       -0.30581669524380
C            0.57989045013105       -2.09476243408105       -0.06523502624232
C           -0.10850078899874       -0.87871687292267        0.05120771107290
C            0.43684413178662        0.46767273362363        0.04349563293632
C            1.81502781026595        0.71619284782904        0.34610871283594
N            2.11852864104714        1.89222521131467        0.92702565927018
C           -0.44938112612968        1.55837667887900       -0.13360232933465
N            0.03380382064696        2.86536031986894       -0.30891851265973
C           -1.84889263816539        1.40016079682376       -0.13272528009162
C           -2.68140447525736        2.51269922817236       -0.34790016326642
N           -3.32058440299372        3.44884632064787       -0.54008800489379
C           -2.39642034971059        0.13371637542056        0.06116331048033
N           -3.65614437183459       -0.29835478467667        0.12340392873207
C           -3.51638469581558       -1.63739264754858        0.22129449051838
N           -4.58448440771992       -2.45251736365180        0.27233272228588
N           -2.25419360788851       -2.11545287611109        0.21912779892238
C           -1.50200632308340       -1.00797738510260        0.13191947169087
H            5.02657531521910       -1.43610693570507       -0.55666181804750
H            4.28638657463937       -2.97781553430654       -0.81684670244448
H            2.14980746060961       -3.41020359976413       -0.49862706499816
H           -0.09340425608923       -2.94285393578446       -0.03257761526857
H            1.38823303408862        2.56545873887963        1.10278363802640
H            3.07160387699142        2.11358081726532        1.16231966418666
H            0.82192052177281        2.94518471785738       -0.93744392209228
H           -0.70490529905118        3.51361684099446       -0.55443673758441
H           -5.48096764178588       -2.03225027347606        0.43945455306861
H           -4.43323024922175       -3.41495199759614        0.51418764034901
