25
 energy: -46.733735535646 gnorm: 0.000783474546 xtb: 6.6.1 (8d0f1dd)
N            4.35232368046084        0.75430962998635       -0.62248477697189
C            3.22362439735710        0.29423918399518       -0.05106190869516
N            3.29620387709765       -0.98565516789913        0.35270449882340
C            2.23756566248610       -1.72532685935674        0.58962479034672
N            0.96040330870782       -1.55015657718215        0.36650668215736
C            0.36319242362375       -0.35260959555113        0.16516091084874
C            0.98099720777759        0.97968513700253        0.29853502859175
N            0.24356513525829        2.07319315060589        0.49392642102138
C           -1.07360171858313        2.04987141416904        0.37775347003557
C           -1.74653586031852        0.91012400836071       -0.00791225479424
C           -3.10167044144207        0.49586895802759       -0.21685939038038
N           -4.18245618454544        1.28435838995919       -0.26105242925327
N           -3.20921499145757       -0.83578749288130       -0.37160583169754
C           -1.96632260418444       -1.33953415757442       -0.27999067356795
N           -1.65476587343102       -2.63074666850779       -0.35555530807959
C           -0.99357975491482       -0.30982839307745       -0.07738997872235
N            2.27658279910454        1.20167702861681        0.11096005326324
H            5.15806606120534        0.15597498558999       -0.65316131468534
H            4.42392631513734        1.73489176739354       -0.82689652830691
H            2.48072661905390       -2.72208879050274        0.95896318277119
H           -1.57300394396009        2.98766326213787        0.59220443357511
H           -4.10629274881757        2.26733395748760       -0.07601783087714
H           -5.08731945015216        0.85633768765677       -0.34918263988588
H           -2.37702472123489       -3.32945389609769       -0.37597047630922
H           -0.69385754962837       -2.85817343555904       -0.13008799440776
