30
 energy: -54.134419593785 gnorm: 0.000773465626 xtb: 6.6.1 (8d0f1dd)
N            0.20608982977107        3.40320288127872        0.60094963461957
C            0.58283153534807        2.32267482347916        0.43001328037827
C            1.08577865512015        1.04236843381796        0.20884347073207
C            2.50233202636457        0.93044460395720        0.36890925193451
N            3.16233015706028        1.99172543256730        0.88826150841922
N            3.29082946693613       -0.05530190410136       -0.01181985079625
C            2.85061970183411       -1.24918555433322       -0.41489717718731
N            3.71844915793292       -1.94681458836582       -1.18698663486983
N            1.75755914957928       -1.88573933803429       -0.06864752905371
C            0.58018037555481       -1.41163764145254        0.29683787684047
N           -0.24971049840935       -2.30601235735520        0.81975639867353
C           -1.55084043969854       -2.06325220349020        0.83923502242409
C           -2.08970783083669       -0.95008419547423        0.23967941779264
C           -3.43762623541753       -0.54154393943483       -0.00983033747499
N           -4.53612889233994       -1.28949446393936        0.24259950866567
C           -3.40084091922619        0.71431598667060       -0.60251904313605
C           -2.07035928741526        1.14624853072623       -0.71489897034249
N           -1.71451469126039        2.26330156864108       -1.38685023489931
C           -1.21512567785182        0.12305858818720       -0.17748331763996
C            0.15474651938717       -0.02054083739977        0.03667223184365
H            4.16502852623133        1.95056570442037        0.91330036854913
H            2.68550604264838        2.84876289137167        1.10544207978128
H            4.66162672495146       -1.60810344258378       -1.25720784774289
H            3.53762325618062       -2.92795270539793       -1.30886317942269
H           -2.15743878503399       -2.83333363034301        1.30186366567121
H           -5.44244634886603       -0.85920828060832        0.18546057363910
H           -4.44250823322253       -2.10959718037485        0.81523210091440
H           -4.25476262140821        1.27515426478678       -0.93658298912425
H           -0.81925735125583        2.68896396275098       -1.20518166111908
H           -2.46013312625915        2.90371368543419       -1.60930518766946
