30
 energy: -55.711629511875 gnorm: 0.000612216035 xtb: 6.6.1 (8d0f1dd)
N           -5.04848653674085       -1.08220177736523       -1.26802626344121
C           -4.02497270947817       -0.73876945719425       -0.88259969415425
C           -2.75765725100503       -0.33029604146569       -0.39726343901984
C           -2.56746752382215        1.03781683616391       -0.23732018096903
C           -1.45434215302851        1.67879937135088        0.28572223309086
C           -1.62971972880964        3.06254373596640        0.53726709569605
N           -1.78421248013846        4.17623765554642        0.76501309272882
C           -0.16216758989743        1.15405778303474        0.55362681959412
N            0.69109007939363        1.96310444804945        1.19269205393135
C            0.32104283957590       -0.15540171306539        0.20387280003386
C           -0.52538685818604       -1.34392997393797        0.23662657355345
C           -1.87570218487251       -1.36569384279846       -0.06566374983933
C            0.10321498428352       -2.62685042986036        0.44984909616804
N           -0.67686863578445       -3.72433181027162        0.72740598717372
C            1.46167819930996       -2.78938206185385        0.26595984263639
C            2.24129011126314       -1.69444615929916       -0.08510172568427
N            3.54331477252578       -1.67060018912220       -0.37335548251955
C            3.85874298483752       -0.38977835226288       -0.58556094315939
C            2.78243736583154        0.48473496075026       -0.39324564959681
C            2.81166058063590        1.85906435956347       -0.60528703085137
N            2.82741819841831        3.00094655477350       -0.75676515838622
C            1.66900791671700       -0.35231023555011       -0.06511525919548
H           -3.40998034151270        1.67384760481633       -0.48455916427339
H            1.64358877739768        1.67774336555309        1.35182337174964
H            0.46222065888285        2.93489623896140        1.33778469502111
H           -2.31309722591128       -2.35271661211089       -0.16263802295985
H           -0.17537849858707       -4.58094498487289        0.89551559119960
H           -1.50535857484521       -3.60281272490773        1.28473994087055
H            1.92113218043752       -3.75966077235156        0.37364280357284
H            4.85676590540919       -0.11388963723889       -0.87507115067043
