29
 energy: -51.189105850468 gnorm: 0.000671611564 xtb: 6.6.1 (8d0f1dd)
N            5.04688296372798        1.58605339300372       -0.69501103635791
C            4.04405092303866        1.06812998728743       -0.48466478001406
C            2.80212390231622        0.44637107374921       -0.21990236218035
C            2.84362050944877       -0.93785053745276       -0.00298538265401
C            1.76348991269720       -1.77452975276508        0.19112523180803
C            2.05132951998358       -3.14398404820412        0.39966477925378
N            2.27528095661040       -4.25553102678448        0.57606138343210
C            0.38478459364227       -1.45097907127350        0.13500212918720
C           -0.27647636569657       -0.24988542556680        0.04373188220913
C            0.35283172891271        1.09587779093694        0.07390895172874
C            1.70727444612163        1.31313850800578       -0.14330789413002
C           -0.47896694558745        2.23675390699691        0.23967540355572
N            0.06772632124828        3.49196933028353        0.39285631085386
C           -1.87400648668690        2.14865166864611        0.18624004828843
C           -2.48612024960123        0.93186577725537        0.00515364674919
N           -3.79787247757138        0.66402534389705       -0.08456683147704
C           -3.88552065099533       -0.66821505804072       -0.20570195823922
N           -5.08338599154434       -1.28020791691022       -0.29101357993558
C           -2.61593969606058       -1.31066082787674       -0.18836547237715
C           -1.68734589977555       -0.29297778436438       -0.05756838452678
H            3.82717124451917       -1.39435013725136       -0.00354305234447
H           -0.25990409479575       -2.32133248064503        0.17464756893245
H            1.98632146890546        2.34959564743485       -0.30131852123291
H           -0.59101897314921        4.22363964983310        0.60451138297715
H            0.95417487433990        3.58373660395615        0.85929889375395
H           -2.47111845889064        3.04319177338747        0.28255462790527
H           -5.13502055000212       -2.24784460963583       -0.55333468635668
H           -5.89353118498091       -0.69797497819626       -0.40963731957467
H           -2.46289365697452       -2.36869763950438       -0.27545322983605
