28
 energy: -46.680403986617 gnorm: 0.000911712425 xtb: 6.6.1 (8d0f1dd)
N            4.00290723706239       -2.33324727575917       -0.00408109744130
C            3.04725977482770       -1.69693877489961        0.00073371097691
C            1.86071600074931       -0.93559139863971        0.02174668309446
C            0.64441770191352       -1.58524386594562        0.12216722316577
C           -0.59203897614717       -0.90044725625941        0.11043067768251
C           -1.79115518779373       -1.68588879718688        0.14211510356474
N           -1.72086621591321       -2.95503069426930        0.60707171811735
C           -3.01084522964783       -1.31632721605755       -0.45212960972292
C           -3.40983149390950       -0.04486290637797       -0.79401294772749
N           -2.94061116823699        1.08516322635908       -0.30581257260752
C           -1.79037504534623        1.29751580868443        0.27426757580333
N           -1.71301795666717        2.37493712811698        1.07175068657925
C           -0.57035170224758        0.53000828280779        0.06620242985243
C            0.64382777062940        1.19965190835001       -0.05043103386447
C            0.98477428380374        2.56334169643627       -0.18869802586737
C            2.36160099188552        2.65445240705491       -0.29179524936517
C            2.93690557663872        1.37757028822096       -0.20489905164826
C            1.90491223961315        0.46313802681445       -0.07899844562957
H            0.66029927349338       -2.66542647705454        0.12212696805074
H           -2.53017858897834       -3.54833290962658        0.56263710925805
H           -0.89957500098715       -3.29807837646787        1.07053421953106
H           -3.69997342765547       -2.12489753152356       -0.66171639013877
H           -4.29909400300646        0.07794527201012       -1.40157280991751
H           -0.82293578752998        2.66432892145543        1.43869964614337
H           -2.51936640852098        2.96771127614731        1.16874515590680
H            0.30273636013532        3.39015103076287       -0.28027578110068
H            2.91289759194492        3.57014066202698       -0.41691827063781
H            3.98552759969054        1.14806415672019       -0.24247687005801
