28
 energy: -47.473580163569 gnorm: 0.000695629985 xtb: 6.6.1 (8d0f1dd)
N           -4.88720436638478       -1.83483648857009        0.46119285177162
C           -3.98719313186216       -1.13495033325253        0.33902255486773
C           -2.87928227442530       -0.26354579911906        0.18642549415657
C           -3.17080637305148        1.10745717612313        0.23712490229291
C           -2.30448334852604        2.14405541625786        0.00835520115050
C           -0.91467858265765        2.14386504948111       -0.19693348590761
N           -0.39751912902728        3.35188371607370       -0.53852814007744
C            0.01003637921038        1.06042981619978       -0.01663143523660
C            1.35494463670078        1.39750468477332        0.16618480690977
C            2.38630296159591        0.45667872943487        0.19280215892502
C            3.71085584608700        0.89537535785882        0.40991717546443
N            4.78118710549320        1.27177417198727        0.57842815618816
C            2.09845788524952       -0.88296571491927       -0.02375313834482
C            2.89435739533336       -2.03193505294635       -0.10663429704308
C            2.04315358567012       -3.11137937125904       -0.29275544474718
C            0.71299418198910       -2.67176781181340       -0.31905114213280
C            0.69973806567014       -1.28418834969060       -0.16182089530301
C           -0.35254150820829       -0.34602555982722       -0.07913587182315
C           -1.65190454710808       -0.87170478022329       -0.02015838524544
H           -4.20762981074060        1.36511632310575        0.41284472129759
H           -2.75649571874517        3.12931708327924       -0.02455610208666
H           -1.02128329327087        4.12147404963897       -0.70818313662630
H            0.54355688981637        3.43218763689587       -0.87856097345372
H            1.63362788849804        2.42481056500136        0.35019002709354
H            3.96558476215853       -2.05873149760553       -0.03624437049954
H            2.35110362506503       -4.13578383510200       -0.40351284063100
H           -0.13251740815156       -3.32034329552577       -0.45680648331679
H           -1.69461870787649       -1.95225859385382       -0.06986755494177
