33
 energy: -58.090616243318 gnorm: 0.000787981028 xtb: 6.6.1 (8d0f1dd)
N           -1.42793040045537        4.14745358516475       -0.41021196022635
C           -0.95527448271351        3.09991651735778       -0.32219639192153
C           -0.29739582286321        1.86690003720461       -0.20971555341572
C            1.11621309392531        1.91171412106361       -0.20541387977923
N            1.77454310468524        3.09460534555617       -0.37541185756733
C            1.77929378396068        0.70985337779033       -0.00806398086111
C            3.14195146140091        0.37588415753656        0.15814011513605
N            4.22736928566395        1.20422405850597        0.07275890003544
N            3.29280625343249       -0.91333707336005        0.48735091185136
C            2.07773278197335       -1.48322734760082        0.47905873496820
N            1.97478880027036       -2.74478139057547        0.94682966444453
C            1.05165072332993       -0.53432008110295        0.13002149201907
C           -0.33078833392173       -0.59316161886114       -0.03904468790018
C           -0.99271688453581       -1.83701147264603       -0.30701924793612
C           -0.21914386051748       -2.85486736778718       -0.88003247401964
N            0.36499940227737       -3.71714855212843       -1.37602910196998
C           -2.32772055653845       -2.21127810987542       -0.13486772643620
C           -3.41229236369988       -1.46529157439359        0.24673955496260
C           -3.46584043979227       -0.06250083748644        0.35598708236711
N           -4.66975081807534        0.47631823801870        0.69712663373634
C           -2.42596655127005        0.83113232404940        0.11926820599898
C           -1.04395978020830        0.66797179961433       -0.05640252795214
H            1.21426963121044        3.93309716924235       -0.33734758034625
H            2.69906636760204        3.16482841868680        0.01562090373700
H            4.20612124022155        1.89457498771367       -0.66261438495217
H            5.10150141477252        0.70248993235228        0.14049874335150
H            2.86889503687804       -3.18510818931342        1.10205915405786
H            1.23674699456791       -3.34763017927206        0.62161626652629
H           -2.52191882679422       -3.26149883318829       -0.32709699447156
H           -4.34451601079715       -1.99244267168459        0.40136351746079
H           -5.48630264256420       -0.10704427691015        0.72815457541082
H           -4.80383835687099        1.46997493686876        0.63707684497329
H           -2.73740259245483        1.87029442846090        0.15269667811225
