29
 energy: -50.407522037071 gnorm: 0.000521492728 xtb: 6.6.1 (8d0f1dd)
N           -3.55879831678318       -2.66689278993702        0.09170112911494
C           -2.90962228795608       -1.71320652558399        0.07866706394500
C           -2.20755609027169       -0.49812482468161        0.07579051783480
C           -3.04959715746946        0.64155832406046       -0.12880533368264
N           -4.30734190349414        0.41421540293076       -0.57521401708646
N           -2.80507804041050        1.91608907780281        0.10845968302792
C           -1.63261248815126        2.43680365570996        0.44592694238970
C           -0.36354693571664        1.92789274376992        0.40074134107651
C            0.07738469996320        0.59891016570446        0.14103504926580
C           -0.78925113524979       -0.55914895242706        0.16422782872297
C           -0.20762984345612       -1.84034344630579        0.24443727779021
C            1.15186601604561       -2.06323553771440        0.21050067769671
C            1.99069844899559       -0.97662660856830        0.04890697280544
C            3.39649982722653       -0.80645742533344       -0.06833515167509
N            4.33645002598843       -1.76979590930486       -0.07799725084245
N            3.72594970636905        0.48800258093027       -0.23707310898182
C            2.58670777442196        1.19072233243653       -0.21269845747907
N            2.62442916392298        2.53093908908453       -0.38514492884148
C            1.44000982800158        0.34862903440614       -0.00536737216083
H           -4.67117113860452       -0.51993235430628       -0.65019404330740
H           -4.93259550956563        1.20051596217956       -0.60430830215471
H           -1.72862995454028        3.47712023196294        0.74850500227873
H            0.42133377819538        2.61907156674298        0.67464144433076
H           -0.87002773114960       -2.68877497323397        0.33043714679441
H            1.53610805168917       -3.07076246709580        0.28271904262307
H            5.30005989323795       -1.48686569222422       -0.04620264953764
H            4.09186489628745       -2.70473477056187        0.19338381711890
H            1.80323656372308        2.99434017725522       -0.73810206826573
H            3.51823316495087        2.89401810800213       -0.67779201220060
