31
 energy: -53.062110158402 gnorm: 0.000710541012 xtb: 6.6.1 (8d0f1dd)
N           -4.34865143206167       -1.77479102778530       -0.04466434648741
C           -3.20086204562250       -1.02994864573470       -0.00460096827687
C           -1.99043776323291       -1.72003189677773       -0.03762015455278
C           -0.67945105768305       -1.21568504310345       -0.03494816367058
C            0.37835335299457       -2.13578910166137       -0.03930268681101
C            1.72925069419752       -1.80036722908643       -0.01449066051574
N            2.70220914241978       -2.77767803119565       -0.03434146672441
C            2.04711314945192       -0.44091783034832       -0.01075067083698
C            3.22790463947659        0.33597352798331       -0.00041964758888
N            4.52118075435115       -0.11313837075715       -0.01658064553049
N            2.97212357934314        1.65977422797197        0.07107729480275
C            1.63884469710284        1.78636780969809        0.08101941132683
N            0.96808512654310        2.94095248721530        0.11773348263062
C            0.98264266788520        0.51579948869726        0.01775089060666
C           -0.36750236568342        0.20720553156834        0.00101132712693
N           -1.21681496915097        1.25475746144165        0.00744436893001
C           -2.53521561101885        1.24030392347194       -0.00240115448131
N           -3.09320863507083        2.48927964094235        0.03267562608081
N           -3.45188314157253        0.27853867195326        0.00789922423080
H           -5.20229882689854       -1.27832722587932        0.14417792687980
H           -4.31131871613404       -2.75200844550987        0.18406795017264
H           -2.07828704794062       -2.80084235292615       -0.06259790540687
H            0.12219527077167       -3.18828399104112       -0.04643492059171
H            3.57293825549267       -2.53193755658307        0.41029590398988
H            2.37961663468554       -3.70887655026416        0.18209118271537
H            4.69446870230762       -0.94120841958836       -0.56582752920924
H            5.19178795327919        0.62852056004934       -0.15711974048082
H           -0.03907168042544        2.81724572471278        0.17490686489043
H            1.44296465789679        3.81134507855029        0.27312414572404
H           -4.07691392709215        2.54523394928232       -0.16400732088722
H           -2.51130775611188        3.27233621360399       -0.20691843685513
