32
 energy: -54.367178493470 gnorm: 0.000637174076 xtb: 6.6.1 (8d0f1dd)
N            5.68530762173530        1.88324082997649        0.06616263728272
C            4.66469730366917        1.35129309029105        0.01893669214135
C            3.42585870547954        0.69411162184423       -0.03669996103940
C            2.31854307014215        1.48917700472465       -0.36016063912247
C            0.98657611576202        1.18050943876438       -0.39173443523582
C            0.29939303319279       -0.03431576046694       -0.12789449343906
C            0.94295991316496       -1.32948668624465       -0.06352429841518
C            0.13556527391541       -2.48568819130741       -0.11748878289529
C           -1.23883469407702       -2.44998114348873       -0.15287597129277
C           -1.87994575791712       -1.22542702976512       -0.07503357245559
C           -3.24763675889415       -0.87725532227953       -0.03674221628902
N           -4.30665571296237       -1.72235853790139       -0.04307684211558
C           -3.32594860206711        0.53030229364533        0.09552214872556
C           -4.50069854565521        1.26801213979895        0.21023158586559
N           -5.47205924797640        1.87942213175760        0.30661567978468
C           -2.01914238530747        1.06564397316058        0.12400565488652
N           -1.75801851634049        2.39397313186008        0.28131580152327
C           -1.09512252944919       -0.01153985779050       -0.02208407979631
C            2.32314588729541       -1.55406571209838        0.07226491778323
C            3.42399172414144       -0.71146261100580        0.16954774974580
N            4.62167623763693       -1.28671351543345        0.46459754137441
H            2.56871779317816        2.51779117763001       -0.59894515144297
H            0.34446154037421        1.98977264281235       -0.70896726348292
H            0.63129127246570       -3.44554653454034       -0.13347619088819
H           -1.80070733622718       -3.37196673786901       -0.20974203919176
H           -4.16336989017558       -2.67974815296997       -0.31093840969563
H           -5.22814013591767       -1.33653040839890       -0.16031421210815
H           -2.55055449692415        2.96330999467998        0.54073201856409
H           -0.88241578013452        2.65151545527794        0.70901503338627
H            2.58125846528819       -2.60395073172184        0.17355410738473
H            5.46245310910534       -0.73622242146717        0.42700716381930
H            4.70604308287985       -2.28681799107404        0.48921240503874
