26
 energy: -43.233792503556 gnorm: 0.000781276046 xtb: 6.6.1 (8d0f1dd)
N           -1.33451930915855       -4.09802684289035        0.02078827734957
C           -1.19398321120189       -2.95754578671131        0.01311518591847
C           -1.09334317878751       -1.55113178479096        0.00528610662108
C           -2.29144869687660       -0.84398357375005        0.01036943451060
C           -2.24675049078226        0.53439271670543        0.00263777604466
C           -3.21658048668024        1.55414061206281        0.00099225893229
N           -2.64920344770322        2.75770651394831       -0.00886016233176
C           -1.32091376787266        2.58052417461614       -0.01283510674783
C           -0.97264576540052        1.22199304948700       -0.00629293971768
C            0.25667755645829        0.52963515994911       -0.00660930702941
C            1.42216175543710        1.29780441235421       -0.00287015637883
C            2.77991289359854        0.97596960206323       -0.00211569257318
N            3.65708572555002        2.01496567190599       -0.01535486289533
C            3.33207283914583       -0.31789171558063       -0.01399421121737
C            2.66047656916279       -1.51765363995893       -0.02324337082589
C            1.29712451844703       -1.77712249941788       -0.01747342945593
C            0.18996727846078       -0.92389678494134       -0.00575794333726
H           -3.23068007970608       -1.37911541822816        0.01936776230623
H           -4.28533154378091        1.44563744929718        0.00606310116385
H           -0.68056991392284        3.44452242226479       -0.02189602671317
H            1.23081510132489        2.36470072986738        0.00132802337324
H            4.64296983403413        1.84794206138909        0.06881672216706
H            3.32677280943922        2.95907175333761        0.07049443772287
H            4.41394502434757       -0.36488484935360       -0.01694512298837
H            3.28891233459486       -2.39973919254401       -0.03341088512368
H            1.04566091017230       -2.83180740958088       -0.02213988567433
