30
 energy: -50.130099674216 gnorm: 0.000653153054 xtb: 6.6.1 (8d0f1dd)
N           -4.40383251932819       -1.88002246215123        0.18616611053100
C           -3.37929004737827       -1.36478003729717        0.09836879661352
C           -2.11719459007781       -0.75197112338684        0.01320076346107
C           -0.95460748156298       -1.51585476260627        0.06355600217608
N           -1.07702573103142       -2.90019504139586        0.14293835939284
C            0.34606874463873       -0.91665304414174       -0.02662716333489
C            1.40243351255773       -1.82960360100325       -0.24191504961433
C            2.75871766984211       -1.69521118996430       -0.24965079494062
C            3.52699025682440       -0.54128642400543        0.01610298340265
N            4.87357945338340       -0.71782889708387        0.12245844385715
C            3.02664683400501        0.73756019181363        0.17878273946875
C            1.72173817574961        1.24509893457846        0.10193451991682
N            1.60633172047059        2.57078632039556        0.15917380321360
C            0.47025495991779        0.51498912526807        0.00685827600614
C           -0.71440325088971        1.26001254151911       -0.04010827395935
N           -0.86282886661900        2.61323782342288       -0.06016503057175
C           -2.17529067318927        2.85335867906264       -0.12216310473443
C           -2.93938168615910        1.68918098509762       -0.13608807764652
C           -2.01948701591408        0.64637065539673       -0.08116655999199
H           -0.44135632838933       -3.37233639421252        0.76676576121751
H           -2.03286056568936       -3.20885144026172        0.25824895059524
H            1.06391201523128       -2.83185512161182       -0.47186694419927
H            3.33123787153671       -2.59056420276149       -0.45996908214761
H            5.28007478938188       -1.59537198627957       -0.14893492629577
H            5.48030829594658        0.08157186520284        0.16513686275776
H            3.78322162256276        1.50167554021438        0.33487403097452
H            2.43036195152172        3.14172406438675        0.24095304876504
H            0.62899257879253        2.96306916432252        0.08448764757562
H           -2.53129777804561        3.86858439909452       -0.15393936907823
H           -4.00830506358835        1.61444112568732       -0.17610788081054
