30
 energy: -49.318506436049 gnorm: 0.000610537469 xtb: 6.6.1 (8d0f1dd)
N            4.55644554851220        1.18713517494630       -0.02842609046785
C            3.39068162838830        0.47502478291184       -0.01438832881646
C            3.51585345137638       -0.93693455317049        0.05410138249826
C            2.47922648009245       -1.84176952877317        0.10380180662589
N            1.17160071066508       -1.68784671822280        0.09938239136051
C            0.49381031058385       -0.51551956003367        0.05454614952935
C            1.02570481461025        0.84946241863826        0.01810917157868
C            0.13075103331368        1.91100694422818        0.03271213485537
C           -1.26516079259027        1.78430353030080        0.04996926946728
N           -2.06008377670466        2.91335167587158        0.06347256748064
C           -1.78951478700367        0.50071649026433        0.00562874906891
C           -3.11037797561732       -0.02988699519270       -0.05187148760423
N           -4.26663070810419        0.71401516762844       -0.11404727246174
C           -3.03898763960903       -1.42222021034915       -0.00528132101831
C           -1.69423545075461       -1.80303631181900        0.05560534775918
N           -1.14659638648683       -3.02295683790804        0.11377075639383
C           -0.89036016707711       -0.61540337844107        0.04379975408178
N            2.32121983423602        1.23301564461558       -0.02756790694799
H            4.47504341690823        2.17225483283423       -0.21207246125493
H            5.42050315342265        0.72875188135865       -0.25576270787968
H            4.52362798531963       -1.33166965446773        0.06742573178369
H            2.76584420621292       -2.89260487303554        0.15172763935888
H            0.56144683481906        2.90248174673012        0.03907289340189
H           -1.57172683633897        3.76671829881836        0.29082853759262
H           -2.94500510935147        2.81340394084942        0.53646270922240
H           -4.19116545763988        1.58477766331269       -0.61767389709894
H           -5.09330286247783        0.18374894883581       -0.34770285841999
H           -3.88184088236305       -2.08959691135551       -0.02937579718238
H           -1.69987064081051       -3.85958793477193        0.07756463697594
H           -0.12563318943133       -3.00609234750380        0.11337191471747
