23
 energy: -44.062868531702 gnorm: 0.000728173508 xtb: 6.6.1 (8d0f1dd)
N            4.70357165884256        1.29861399725798        0.09762604738255
C            3.65534648202642        0.82440932529448        0.09474127727540
C            2.43002851887555        0.16837436000979        0.09022880318965
C            2.27332684510644       -1.26517950022645        0.04986905061575
N            3.28166102103784       -2.14519508570585        0.03752431546485
N            0.99545895662567       -1.64821274149800        0.01097946464644
C            0.26669600720956       -0.51514901337223        0.02605868600055
C            1.12888892460871        0.66696153064187        0.09586202481983
N            0.65728694052106        1.91385082345112        0.10162437058741
C           -0.63305536743708        2.06625432578248       -0.00236804533520
C           -1.59600374492293        1.02214134833760       -0.05485014872227
C           -2.94307582031451        1.35514429650866       -0.21737841968789
N           -4.00311228062970        0.64119927694937        0.12023760266452
C           -4.01203214137128       -0.63497345588765        0.37276357102674
N           -3.21574059598519       -1.56776708246708       -0.13175056923967
C           -1.95676311154072       -1.44631455117582       -0.38846218775785
C           -1.10575835522013       -0.35525391327416       -0.04476016595598
H            3.07380614757165       -3.12731490003131        0.01848217070474
H            4.23346563109741       -1.82646543273952        0.07390309101163
H           -0.98367065551872        3.09034724204514        0.00118854033055
H           -3.17899258094244        2.37064655054335       -0.51940159523062
H           -4.85989625484904       -1.00641680738118        0.93948183073016
H           -1.47996241809134       -2.30113810206316       -0.85705099662142
