32
 energy: -53.556924420535 gnorm: 0.000669596068 xtb: 6.6.1 (8d0f1dd)
N            5.34801941931088       -0.76528325879603       -0.18084294878725
C            4.22935714767529       -0.48569187672735       -0.12821351124786
C            2.87425196887723       -0.14199839388654       -0.04502017583513
C            2.56265442614057        1.23185618614776       -0.18223280183023
N            3.60176512508645        2.06662571982386       -0.47116126914124
C            1.31592093924555        1.83016951761976       -0.03432324563203
C            0.02330968907871        1.31761483864619        0.10556670127069
N           -0.90190538021403        2.28372534270557        0.24160080527001
C           -2.18818908068394        1.98877082080885        0.27964280061614
C           -2.65722757044410        0.70609916095923        0.11164622801720
C           -3.95960134044320        0.13403478524231        0.03695955351117
N           -5.13220421286693        0.82920415068460        0.07915383416397
C           -3.81168768037895       -1.23342147767126       -0.18221826062527
C           -2.44932860980039       -1.55338890425788       -0.23453116380932
N           -1.95686156937368       -2.81679133989524       -0.46199928948709
C           -1.69671380143522       -0.36385406143644       -0.02087431268112
C           -0.32750385014032       -0.09541122744914        0.08659348550113
C            0.58697263605823       -1.14925055158443        0.26208892375697
C            1.96950706759214       -1.20192783242204        0.23467430133673
N            2.53309571204989       -2.43896627530145        0.41636007829727
H            3.45729804743787        3.05915276448782       -0.42728363198369
H            4.54524746829143        1.71979178532437       -0.44690784306690
H            1.32211411432209        2.91352006195518       -0.07070819082924
H           -2.84988180016676        2.83742658681741        0.41894535905255
H           -5.10338456076950        1.76040113292047        0.45796669640011
H           -5.97642647598216        0.30804047649347        0.24650959249704
H           -4.61522421965730       -1.93679793031055       -0.31019724442622
H           -1.07210985042554       -2.85824397386088       -0.94652477849643
H           -2.64137837043492       -3.47159291376517       -0.81193367225871
H            0.12331152691552       -2.10111797136241        0.49010442903506
H            3.52692614506825       -2.50376998842953        0.55778239434293
H            1.96561016436688       -3.17155058338033        0.80500709096886
