29
 energy: -50.417156740849 gnorm: 0.000505789392 xtb: 6.6.1 (8d0f1dd)
N           -4.86599502163869        1.27940666882442        0.09795116786799
C           -3.83741870178832        0.76157544576001        0.05519431850119
C           -2.61801064771179        0.10230486923255        0.02276167006028
C           -2.43753949654975       -1.31523323945033       -0.00713789123267
N           -3.43569229755655       -2.22659487886651       -0.08385783599272
N           -1.15293361383272       -1.66162292558078       -0.01831331535408
C           -0.43037287740682       -0.49807417116971        0.00612258025430
C           -1.32025133845716        0.63509181352666        0.02830525344859
C           -0.80529583203209        1.92434591801526        0.07590137446258
C            0.56070420913986        2.11305641918788        0.04777686390618
N            1.05002500206290        3.41367994873751        0.06587395352156
C            1.47476003885683        1.00778637700224       -0.04356719104280
C            2.81516475752515        1.32119238358715       -0.30091062742277
C            3.95725765054620        0.54747869662740       -0.21399659860722
C            4.02202450635003       -0.77528091828093        0.21531769060821
N            3.07635067464453       -1.67041559288630        0.30013771668833
C            1.77423068398179       -1.53683346291228        0.03817685454511
N            1.14632393714965       -2.69366770933620       -0.13134197486914
C            0.95083616864762       -0.34241449109819        0.01626955836485
H           -4.37142357063552       -1.91891070270846        0.11685609434867
H           -3.20957727104080       -3.19169214550879        0.07994770508183
H           -1.47191933338266        2.77375400190055        0.13381691139332
H            0.33823369263899        4.10726279689135        0.24076510099412
H            1.88941093349910        3.57677546052351        0.59844737571971
H            2.99333347346682        2.35300047339022       -0.57723719748922
H            4.90015552993148        1.04014411644028       -0.40946332471631
H            5.00112432490212       -1.16578231404270        0.48129576114119
H            0.10582211071501       -2.66268272695419       -0.16604905352951
H            1.68907132027465       -3.53728142145157       -0.04544494235148
