29
 energy: -45.608473915933 gnorm: 0.000572019579 xtb: 6.6.1 (8d0f1dd)
N            4.49194787790325        0.70617889531321       -0.26805575650854
C            3.26126631557577        0.11358055842919       -0.09546853692238
C            3.00064065157235       -1.24506384149670        0.08943626083082
C            1.60935196304575       -1.35530427509559        0.12250261990866
C            0.71032107191662       -2.39804771147592        0.31238337243115
C           -0.63285670188501       -2.12981870756389        0.24247535309797
C           -1.17543100276919       -0.83921128796262        0.03832747405450
C           -2.59538829301874       -0.78566868231469       -0.15563594256199
N           -3.21861850224128       -1.95626056593678       -0.50504352664950
C           -3.45018054554765        0.28787127011673        0.06977974211972
C           -3.13714308525691        1.60508208964050        0.35340179394729
C           -1.91227161814248        2.22081319487003        0.28719801771922
C           -0.65080391544062        1.67944496364982       -0.02203411426183
N            0.32991504745457        2.55675940911099       -0.24999944565421
C           -0.27837641156697        0.28476670857442       -0.02631666012229
C            1.09572478060666       -0.01552621204037       -0.04759890217553
N            2.13538716470801        0.84829063940573       -0.17347058662385
H            5.26944267420754        0.20918557064667        0.13621024095043
H            4.50398856652220        1.70126997179657       -0.10744076498425
H            3.72567095715628       -2.03031777187848        0.18042820359359
H            1.05974314093155       -3.40301700328053        0.50402000749843
H           -1.31392131805873       -2.94930364893647        0.41897138269259
H           -4.19388222341096       -1.90441532849147       -0.74587015063503
H           -2.68363607287278       -2.67134178853112       -0.96425973250852
H           -4.50749990186671        0.05464311591066        0.01343604640373
H           -3.97915715861864        2.24839226073361        0.57883675441487
H           -1.91103448872716        3.29410773990057        0.44384081891624
H            1.29795770364145        2.15592542469909       -0.30497974560519
H            0.14513490758189        3.53970406000667       -0.13831889386605
