28
 energy: -51.480043296721 gnorm: 0.000506050327 xtb: 6.6.1 (8d0f1dd)
N           -0.95939631927881        3.55958987353678       -1.25362763075500
C           -0.52166395646114        2.57275203176612       -0.86083750205120
C            0.14887682495016        1.39527406729824       -0.47470323311374
C            1.52592040378677        1.49922672843581       -0.26767448403602
C            2.24773808868410        0.37086698695123        0.05504643634725
C            3.63020628291147        0.15038668560790        0.30968088746004
N            4.57767151361605        1.09886925226985        0.43667547809483
C            3.83118006207651       -1.24663254530995        0.41523685893626
C            2.63277394616183       -1.89404030222424        0.22117197339026
C            1.61848038728104       -0.92422108122108        0.00268529119025
C            0.27348884662005       -1.06896332163248       -0.30777797868847
N           -0.17188395421891       -2.26481466297281       -0.71079572213698
C           -1.38751449361122       -2.68059768239092       -0.84195964600589
N           -2.50472763641930       -2.26230558327084       -0.26833462504313
C           -2.70904354036301       -1.04801715922303        0.19764561474883
N           -3.83656714599146       -0.89906989831565        0.91574476007634
C           -1.91002971431863        0.12988050264374       -0.05871473287563
C           -2.58410925300392        1.33127804815419        0.23315510520693
N           -3.24326972988098        2.21921174570203        0.55334552107095
C           -0.53392410826104        0.15636978468586       -0.33759533562046
H            1.98758572544103        2.47383633282082       -0.35095984708290
H            4.35436639694323        2.06210679136015        0.26079957102583
H            5.54396737771333        0.83493652614514        0.51093234433028
H            4.77996103979740       -1.71118810533579        0.61224511570032
H            2.46914653606014       -2.95473750689988        0.23277691494158
H           -1.50149186060355       -3.59964368565292       -1.41107416283066
H           -4.16601617496598        0.01152021587409        1.18913188944783
H           -4.43389246756459       -1.70182816320320        1.01644921807238
