29
 energy: -56.012169350354 gnorm: 0.000399388200 xtb: 6.6.1 (8d0f1dd)
N           -4.58164208334241       -2.01109522533064        0.00458008539420
C           -3.76090622575258       -1.20798301768443        0.00294450359522
C           -2.80047041555986       -0.17149571698821        0.00157198916145
C           -1.46660000066418       -0.55598687793720        0.00286768774320
C           -0.29454035383735        0.20305320205123        0.00181534913236
C           -0.24178957241955        1.66139473474234       -0.00041688035813
C           -1.36968432373231        2.50680017722114       -0.00180561414185
N           -2.65761552723855        2.31063483724853       -0.00245689186611
C           -3.32581596590352        1.15588303171449       -0.00141558899872
N           -4.65642848987245        1.31803457990613       -0.00329075031743
C            1.00032827421866        2.30825471685506       -0.00103878634991
C            2.21670820054847        1.63325757127313        0.00026909859805
C            3.42889593699116        2.35659922252712       -0.00063788722695
N            4.39601547162576        2.97204311937132       -0.00095911669351
C            2.21073759450368        0.23594581387569        0.00245125862433
N            3.25247164440901       -0.59714394522110        0.00409816316738
C            2.73881025523934       -1.83539410614377        0.00590251920238
N            3.51979075644360       -2.92131197964254        0.00745949558722
C            1.30441284508171       -1.83216822303624        0.00540642893390
C            0.53594019268369       -2.98869147111467        0.00673993661653
N           -0.05285495641025       -3.97919469951268        0.00949490973244
C            0.93760215545589       -0.47668853471585        0.00324507062526
H           -1.31491288290198       -1.63009961801732        0.00489320085181
H           -1.13429574844995        3.56985579503036       -0.00274587254829
H           -5.01547487482737        2.25818584464834       -0.00526123961023
H           -5.28392831188923        0.53065607813034       -0.00260780681741
H            1.01878819800555        3.38898899739776       -0.00267377471439
H            3.11814958776484       -3.84189078288976        0.01014186849712
H            4.51648708153027       -2.79804880175865        0.00855711618002
