29
 energy: -50.406134793305 gnorm: 0.000814542687 xtb: 6.6.1 (8d0f1dd)
N            5.11611613790382       -0.60394299910881        0.46527044006660
C            4.00709086386926       -0.32834012667260        0.31722979523806
C            2.66344600277975        0.03342399625492        0.13090291373661
C            2.43683854648546        1.40683783796371       -0.20707419568662
N            3.47753587760056        2.11865919136971       -0.69199837850591
N            1.33884020208948        2.09763246808249       -0.00130760100388
C            0.13118202219333        1.64406752742226        0.26423402452563
C           -0.43786305262046        0.38416808751536        0.10232862469947
C            0.29165542440810       -0.85755598853869       -0.06279330536645
C           -0.40764274684610       -2.01530322624447       -0.39867599991789
C           -1.79137191361267       -2.06945155122771       -0.53850963556397
C           -2.53371918476037       -0.94755175240522       -0.25569103493431
N           -3.87131437782020       -0.79016555386353       -0.26945412239095
C           -4.08050432977204        0.49177380867729        0.04074172754473
N           -5.33933531523115        0.98094147737905        0.18324393876996
C           -2.87687150256651        1.21997308615067        0.25692737084064
C           -1.85699521858761        0.30604240599024        0.08502788276977
C            1.69474617650653       -0.97485999059657        0.24489612356332
N            2.14035924084436       -2.19089608310961        0.62696696544228
H            4.40221509877746        1.72513507699450       -0.72222751635583
H            3.35352914972757        3.10995568756964       -0.80188305368009
H           -0.54912532678954        2.44425351493231        0.53654176354964
H            0.14357397803687       -2.92103979296030       -0.61266498138710
H           -2.27408121015410       -2.98592842601334       -0.84017730050914
H           -6.07994385568644        0.39439073465765       -0.16266845284621
H           -5.47491758491813        1.97556495991604        0.13136932263396
H           -2.82530984292444        2.26228144968255        0.50666620489227
H            3.11719517904687       -2.32744687974211        0.82641567574613
H            1.49621093452165       -2.94389679597529        0.78826548082847
