24
 energy: -43.782433953917 gnorm: 0.000433521854 xtb: 6.6.1 (8d0f1dd)
N            4.71254147987792        1.47983762851138       -0.00732110798232
C            3.66966895649910        0.99914324738815       -0.00483034867563
C            2.40570705573647        0.36688313162670       -0.00373838482268
C            1.29996362617671        1.19499307975439       -0.00308743580344
C           -0.06834920294114        0.89296569037315       -0.00110425313750
C           -0.96354617696877        1.98377008113859       -0.00021486520870
N           -2.27672156431887        1.91723713423861        0.00143283480828
C           -2.82070675164363        0.71792051037506        0.00233278281736
N           -4.12778819164122        0.44163078794033        0.00384937922013
C           -4.21610158968911       -0.88951397082829        0.00430554045020
C           -2.97506854518539       -1.54366578894495        0.00300738536736
C           -2.02154507700158       -0.53175645499032        0.00164554466777
C           -0.62129513095088       -0.45213452752471       -0.00024578506434
C            0.12185442395845       -1.64504265402403       -0.00185110969516
N            1.40297723630209       -1.91208464426714       -0.00251811611354
C            2.42757852269425       -1.06944913003419       -0.00263134343654
N            3.62234313224635       -1.68116753274139       -0.00202733079188
H            1.53023107129414        2.25598716414436       -0.00397763093427
H           -0.55891878548600        2.98859330330103       -0.00087588423722
H           -5.18483129989346       -1.35797810728726        0.00555997489612
H           -2.82700298262177       -2.60646157333016        0.00320787703935
H           -0.47703891860682       -2.55182606963709       -0.00233426911032
H            4.48438197468968       -1.16176863947459       -0.00240092511345
H            3.63345467697348       -2.68735669270766       -0.00150829743958
