29
 energy: -55.209700059018 gnorm: 0.000787395897 xtb: 6.6.1 (8d0f1dd)
N           -0.61112078585991        4.44963849258795        0.53074882253593
C           -0.45192973154642        3.32440620055764        0.36288173183243
C           -0.17635532458530        1.95688048746962        0.17967404426425
C            1.17365082240815        1.52035105802684        0.12737349967414
N            2.17560682169254        2.48869639302587        0.14008983774577
C            1.48378123059657        0.16587266959522        0.01656367384971
C            2.83449589508503       -0.26480041669496       -0.31659321420149
N            3.55810163555273        0.48644162805553       -1.15436888064770
N            3.44310366350289       -1.30470719618275        0.20669573251500
C            2.87314297537542       -2.35653635355670        0.74726011846973
N            1.71626395135521       -2.87662353046999        0.43467570895995
C            0.68280162702024       -2.22392184904661       -0.05038925575717
C            0.43577659809292       -0.84137271840273       -0.02383772122330
C           -0.89342407274316       -0.38068199307653       -0.09736976913378
C           -2.14327510333274       -1.00463207890444       -0.17531771285148
C           -2.49186647151340       -2.34245198841269       -0.28394539540580
N           -2.84655094485774       -3.43544517714758       -0.37506643546230
C           -3.10307386396110        0.07205324803229       -0.11539715663985
N           -4.43288330581897       -0.07739098037229       -0.19494638205843
N           -2.52702385251645        1.26517626417338        0.00491886874487
C           -1.20224799647569        1.03634215781766        0.02689478804317
H            1.83969974430163        3.40698684855792        0.39823159887468
H            3.02177865457737        2.23498780622550        0.62822498970222
H            4.48478192610272        0.18125615665621       -1.40072947692542
H            3.19315963044186        1.35451743592908       -1.50942743756440
H            3.50151365244993       -2.94653205784917        1.40570049823911
H           -0.13001132646968       -2.86785716855156       -0.37011326714825
H           -5.01532854582553        0.73441067399224       -0.09549517814804
H           -4.84054547474905       -0.99501742553362       -0.21047914948276
