31
 energy: -55.433284542862 gnorm: 0.000765565611 xtb: 6.6.1 (8d0f1dd)
N           -3.69870993011659        3.32946913470794        0.64975605970199
C           -3.04270504380881        2.40898922840474        0.44603767916628
C           -2.23760633028560        1.27434248440397        0.19095520299923
C           -0.87319121291433        1.54040536264573        0.12507084751737
C            0.25156071136380        0.73770417575892       -0.05646778515396
C            1.50398606845520        1.40732215561006       -0.19393329143895
N            1.56041999553898        2.77266932173444       -0.36312281673555
C            2.71413475318624        0.70012113229590       -0.09281180350294
C            3.93603366520080        1.39274887597198       -0.21151621020497
N            4.92004504437527        1.97321210932147       -0.32828532470312
C            2.71619713008755       -0.68048051992458        0.10314405424787
C            3.74126874182090       -1.60852705184348        0.24591468930908
C            3.15075429360261       -2.87226632492061        0.33927374420549
C            1.76444124706324       -2.76002442267239        0.25097893332299
C            1.44111903883552       -1.40444817895660        0.10566010838512
C            0.22391948575090       -0.72399350137497       -0.02297933589142
C           -0.93650136698080       -1.49962941587597       -0.14025737052117
C           -2.28882685508620       -1.19049060449652       -0.19384818594969
C           -3.14433119420878       -2.29970668835322       -0.39691648743656
N           -3.84714924596881       -3.19147532092480       -0.56762410557211
C           -2.93412625836158        0.05831104730454       -0.01361536579094
N           -4.28252200170551        0.08882572210045       -0.02596276889319
H           -0.65468516687091        2.59074672245898        0.28538927778299
H            0.83070977193400        3.22776162584411       -0.88454891056622
H            2.48236302741838        3.15112616671612       -0.52048015772027
H            4.79185470547501       -1.38942508112552        0.27709981388211
H            3.68630640684334       -3.79637708464821        0.46432434154968
H            1.08116960956835       -3.58709638695702        0.30586849702436
H           -0.73957277437410       -2.56202650184846       -0.22078120745391
H           -4.77349591768980        0.95380105332066        0.12769308342923
H           -4.80899054344842       -0.76012043427719       -0.14834122648847
