30
 energy: -49.320816813997 gnorm: 0.000714935922 xtb: 6.6.1 (8d0f1dd)
N            4.01983436245882        2.08219999984148        0.53542202227403
C            2.88580843851395        1.45524612449223        0.13277692163954
C            1.73756938421592        2.25073768675772       -0.11156275120865
C            0.46648333204380        1.77365803862465       -0.24238779336930
C           -0.04456789696690        0.46417020170901       -0.10389174279749
C            0.71972881374213       -0.76223779163334       -0.02834945073450
C            0.04251013176435       -1.98024906922778        0.22627840194045
N            0.77866466504450       -3.18599094695634        0.37737602825478
C           -1.33694952899834       -2.04678062826010        0.32634761694473
C           -2.10993467307304       -0.90811756967751        0.14932094373161
C           -3.46975977963268       -0.61095740652028        0.15814907203352
C           -3.54282026302189        0.77572151408802       -0.03998218342032
N           -4.68094577029770        1.54247908402992       -0.04373278208068
N           -2.33508564446959        1.36136946733815       -0.17244720725353
C           -1.44009131068703        0.36442370281113       -0.06551455806840
C            2.11221093502555       -0.75835929300255       -0.36013924744656
N            2.63662470957254       -1.84686477009964       -0.95996808162031
N            3.02014580311480        0.17213085170163       -0.10190666746030
H            3.99574459560088        3.04480167674260        0.81574777895425
H            4.81917812233619        1.52139574928072        0.77026210237448
H            1.89293427945336        3.32088864214828       -0.14544597289948
H           -0.32258165270216        2.50205859627961       -0.38540310488518
H            1.55687798562432       -3.09118254610083        1.01944912854204
H            0.17167187919850       -3.93713486392743        0.68319062667849
H           -1.80762699729742       -3.00021021225340        0.53461668286631
H           -4.29641189812303       -1.28238631988437        0.29000857413198
H           -5.53090467310101        1.07563477476290       -0.31613680761477
H           -4.55547924452784        2.46465807709800       -0.43026115270613
H            2.06865060506939       -2.67039801273059       -1.08147862031397
H            3.62216038511970       -1.85562114193194       -1.15279401618661
