30
 energy: -54.928703125598 gnorm: 0.000493417813 xtb: 6.6.1 (8d0f1dd)
N           -5.37334715660738        0.77914773555969       -0.84678748164057
C           -4.32064393241008        0.38272723110877       -0.60597473802798
C           -3.03245654920967       -0.06965990220702       -0.31714774326162
C           -2.66623346057481       -1.38738861638364        0.00727712701092
C           -1.29015493877860       -1.42273155865703        0.17738893904065
C           -0.39593107486036       -2.46363691012351        0.49275768900726
N           -0.81770202998990       -3.69511212510095        0.83777388261289
N            0.91577445747583       -2.28231634456209        0.41920310954189
C            1.43522174019334       -1.07748241760662        0.16775120270401
C            2.79099133437062       -1.10826101810791       -0.15708619565762
C            3.66889855349416       -0.06896739359651       -0.49323313287426
N            4.83158983816178       -0.39048360991107       -1.10537937020574
N            3.56728256924345        1.23034903174561       -0.20617463279910
C            2.51800076514316        1.81952071053862        0.30400910264063
C            1.18861322534532        1.41062464892479        0.42948845718724
C            0.36422484668472        2.39485610375876        1.00073354205180
N           -0.27059762441675        3.21743341715334        1.49710347938992
C            0.60660955146807        0.13400897643796        0.15789918926212
C           -0.75876833545388       -0.08279940271072        0.00901541827457
C           -1.88271225822838        0.75302672735755       -0.31798167599998
N           -1.90353489111960        2.02960623280752       -0.76041321105652
H           -3.35381616497299       -2.20962126458526        0.08919838562170
H           -0.12977372596719       -4.41235267674632        0.98296153265865
H           -1.79273729062597       -3.92824343099689        0.81754505332827
H            3.18632637541305       -2.11270258977570       -0.24178499022043
H            5.08688738418973       -1.34706140267505       -1.26713973743212
H            5.50420783089373        0.34089874969827       -1.25400633689162
H            2.72472833000946        2.83884438534908        0.62366490971975
H           -1.16954998455635        2.67081288538961       -0.50934045537330
H           -2.81787122831747        2.43452403931691       -0.89378579090935
