26
 energy: -42.446513944415 gnorm: 0.000590886432 xtb: 6.6.1 (8d0f1dd)
N           -0.27719592604606       -3.34420584985571       -0.16879811627752
C            0.20603662511211       -2.03490173581806       -0.08474618859811
C            1.57341494435729       -1.84755776018250       -0.03732280143603
C            2.06974507396514       -0.55594537382840        0.05462474869912
N            3.33155340743762       -0.08868029265865        0.09351388304895
C            3.17798909060067        1.23243424384863        0.09407034725049
N            1.92635384084373        1.68974372355715        0.05687089252400
C            1.16210782969111        0.56006435568391        0.03609036464503
C           -0.22765972295387        0.40995805961116       -0.00491048593267
C           -1.01577458683453        1.61126343102448       -0.07893088088012
N           -0.33473851826172        2.75323352774554       -0.10526465158548
C           -2.42679287615290        1.72567164064133       -0.15903526862888
C           -3.39556310220008        0.77658396222763       -0.00380222891874
C           -3.23199130270669       -0.59090104346920        0.23467654677965
C           -2.06854146704291       -1.31734678613899        0.21899770482994
C           -0.72573654754368       -0.94686882244592        0.01296718459494
H            0.46300245516426       -4.01999202874517       -0.29415934585980
H           -1.02985887681648       -3.49169641768877       -0.82463246321226
H            2.24776497293590       -2.68985335930804       -0.08715725566428
H            4.01862763015468        1.90236572438764        0.12262786599497
H           -0.82324057702538        3.63018748884350       -0.17409148456856
H            0.71194028224629        2.68469046048862       -0.04333232578182
H           -2.77426043524568        2.74223518582446       -0.31032262469608
H           -4.41928360427647        1.12821186569135       -0.04651642851288
H           -4.14058780296258       -1.14667323990772        0.42650050076036
H           -2.20231375573981       -2.37306937902828        0.41796588622575
