28
 energy: -46.679528303714 gnorm: 0.000273051600 xtb: 6.6.1 (8d0f1dd)
N           -2.13154457039120        3.63122084050391        0.08762708389476
C           -2.21013624578545        2.48049340465338        0.06272419701522
C           -2.35512839018395        1.09758996555055        0.03119447936961
C           -3.60783134995768        0.45556687376957        0.00368687906790
C           -3.43068284340197       -0.91824296064487       -0.03036367943495
C           -2.05537673134089       -1.17898763889736       -0.02691115048056
C           -1.33850474571593       -2.36355620058566       -0.09363984783257
C            0.04619175641142       -2.34958603018760       -0.06353089184391
N            0.73047013819075       -3.56125251155110       -0.09374010267366
C            0.76696969939530       -1.12619645678403        0.05607871531691
C            2.13990600954570       -1.22181730737045        0.34739604851983
N            3.14196415241254       -0.38655091024038        0.27291624349476
C            3.11241700656454        0.90876446549580       -0.01841564894145
N            4.32694997941035        1.44393370920259       -0.27039763317452
C            1.98803238790020        1.76673588523190       -0.00940900117422
C            0.67054133137434        1.40715503963163        0.04199831007768
C            0.04508421400533        0.13712848102694        0.02197816049705
C           -1.35030641621443        0.08960445407909        0.01587005024315
H           -4.55114828529076        0.97277892945364        0.01142560495889
H           -4.21044244282406       -1.65656772037235       -0.05656147583765
H           -1.86084081785337       -3.30844456431298       -0.16498841715398
H            0.14102913571494       -4.35189613280061       -0.30731175506663
H            1.59861401327107       -3.57520708503393       -0.60511822724709
H            2.47091980918465       -2.20086952989854        0.68598955856951
H            4.44473100975885        2.43273003221313       -0.39482788955204
H            5.13388268746705        0.85020111427219       -0.19277117027054
H            2.20610933826458        2.82642157488636       -0.05076712537655
H           -0.02619364791173        2.23495552180899        0.05225455923495
