22
 energy: -39.543493487264 gnorm: 0.000527889105 xtb: 6.6.1 (8d0f1dd)
N           -2.34136274863893       -2.32329596267058       -0.59650487818175
C           -1.42731356894427       -1.40863602622809       -0.24735008276416
N           -0.15115196604755       -1.80508328794064       -0.27182823503836
C            0.78945730153567       -0.92642877084227        0.01527246698944
N            1.91217803452926       -1.26987330409265        0.56043613794925
C            3.05777634348524       -0.65389773465109        0.73996855946798
C            3.57426490186887        0.36621814095570       -0.04736482494103
C            2.73139509362112        1.15128786662224       -0.83655669568533
N            1.44828812402471        1.30532368163131       -0.64165698281943
C            0.53750999301599        0.56850112069537       -0.09467062916345
C           -0.76837280120762        0.92349965171752        0.23490976813065
C           -1.47435577464169        2.11012149293996        0.50341994623651
N           -2.78039842422988        1.88457433396865        0.59871045108540
C           -2.98484121935069        0.57499156656341        0.37615550139351
C           -1.78705842142712       -0.10240364623189        0.15737306502060
H           -3.32138433923587       -2.13034699901833       -0.49780281857708
H           -2.02595356535165       -3.24722991947996       -0.83825874085649
H            3.67308518195667       -1.10111660584039        1.51350913617866
H            4.63305105405816        0.57880613148223       -0.02480353293437
H            3.14975730870552        1.81838803431605       -1.58205553288437
H           -1.06983002066964        3.09561762171804        0.63752441660499
H           -3.98461376745597        0.17884503358530        0.39260550578889
