25
 energy: -48.305810990953 gnorm: 0.000881836975 xtb: 6.6.1 (8d0f1dd)
N            5.66652739907065       -1.56220380078887       -0.01175660542999
C            4.62480890051627       -1.08078691817198        0.00029902858800
C            3.34648178185506       -0.49056403676088        0.02628547299438
C            3.12409385079078        0.71565822630646       -0.66986054168990
N            2.16068080916120        1.55876261178233       -0.46721801801052
C            0.98119689724829        1.45944599462328        0.10170419001194
N            0.30899528101682        2.55217816307890        0.41091616544860
C           -1.01542496734105        2.52068306835262        0.44273721308560
C           -1.73269037700518        1.39309810247289        0.08163750714956
C           -3.11002023161075        1.11277083627910       -0.02117690201307
C           -3.27332936025424       -0.25941530827578       -0.19001186725861
C           -4.47728408285554       -0.95912585770828       -0.32407291940981
N           -5.43997796841429       -1.57587222890886       -0.43729849564078
C           -1.98918673321791       -0.89188702276436       -0.18326489084281
N           -1.73854895310919       -2.20117727263609       -0.28361639506000
C           -1.02310168526917        0.13286565111860       -0.04048945569817
C            0.34820471739778        0.10411654540382        0.16590438594354
N            1.01808671396792       -0.96725002784542        0.54649447146478
C            2.30111039721115       -1.16446485485924        0.68177598328418
H            3.86171295142905        1.03831208036262       -1.39809639347703
H           -1.49916562930704        3.44354921720437        0.73285264303582
H           -3.90562088869915        1.83198331644789        0.03655069438403
H           -0.79341271934859       -2.52131972157421       -0.14907882279735
H           -2.49519669927957       -2.86468289066923       -0.29209868900369
H            2.55150295704594       -2.04486953317074        1.26661126804118
