27
 energy: -51.757544766301 gnorm: 0.000738830668 xtb: 6.6.1 (8d0f1dd)
N            5.73579988576896       -0.99804310793173       -0.68771885532483
C            4.67259543845686       -0.59451263685909       -0.51759107228115
C            3.36400636215023       -0.14514512331655       -0.28088050907766
C            2.97205067614040        1.11932097319603       -0.70895523083767
N            1.92440780541237        1.80995060751234       -0.33769584889909
C            0.77093489653085        1.43530290898776        0.16021639420234
N           -0.05000165482764        2.37698536158236        0.61796659693321
C           -1.34835389078760        2.15263376084472        0.62981430966462
C           -1.90465190875817        0.99235628970573        0.11386811942877
C           -3.23929947047836        0.54462829674228       -0.05032940927095
N           -4.36521372303721        1.25493633649816        0.11986013391407
C           -3.18257052108950       -0.83095921686500       -0.42861159329073
C           -4.31565194731366       -1.60788111951951       -0.68420063890932
N           -5.27703754255714       -2.20645891841007       -0.88169634629940
C           -1.84909873027161       -1.23591935989957       -0.48680249935517
C           -1.03791378770587       -0.13368434711273       -0.16987389601636
C            0.33199260274433        0.01604688109708        0.04201569302780
N            1.14484111232552       -0.99465248184941        0.27028037144481
C            2.45036116260493       -1.04377245745750        0.37753963659481
N            2.95346904904219       -2.10335527624206        1.03918518160800
H            3.65438996787499        1.66998028996739       -1.34957113388232
H           -1.95210073277531        2.95368209222623        1.03951153106204
H           -5.26014807672600        0.81354484561631       -0.00386837998917
H           -4.32565841296733        2.22101489451199        0.38973534187491
H           -1.50380843006589       -2.22132150561910       -0.73620277522575
H            3.94100862555978       -2.29267637027661        1.02145158179709
H            2.31795795345152       -2.79867525272867        1.39054345900815
