35
 energy: -62.326582214553 gnorm: 0.000763419619 xtb: 6.6.1 (8d0f1dd)
N            5.11600030089473        1.09012005929834       -0.47606498690189
C            4.07780914833833        0.62526623146421       -0.29889296251210
C            2.80288593692432        0.06339168933547       -0.10528668752419
C            2.67882462458631       -1.30831816162335       -0.44151631592733
N            3.68258645803063       -1.88695212308793       -1.13446570944911
C            1.67795834001916       -2.12854118049792        0.08524135530014
C            0.46879691427385       -1.73968066952194        0.62631502214046
N           -0.17097066573373       -2.58093196828079        1.45638203616177
C           -0.22328187987965       -0.49895118601318        0.30064239865105
C            0.41510236665635        0.77321468197501        0.29987955886967
C            1.83856990513368        0.92000977429635        0.46910427697910
N            2.29755170148069        2.00083759758398        1.12340191161676
C           -0.37797453196612        1.94852055638395        0.13893559821514
N            0.21855540066194        3.22886608199789        0.11825322235910
C           -1.76075187521405        1.86293627364647        0.00048492000331
C           -2.52415664862856        3.03692604591105       -0.14258444519176
N           -3.12405090348028        4.01007080367253       -0.26216756654020
C           -2.39522326140083        0.61242904352545       -0.07567238319657
C           -3.71661388225308        0.24671403469037       -0.32374254612996
C           -3.76317234949515       -1.13776067938845       -0.41874395498969
C           -2.48487006150144       -1.67468021124786       -0.19305854402131
C           -2.16515718605450       -3.01900672098045       -0.32554538891529
N           -1.88907857472517       -4.13500382770696       -0.43308828991713
C           -1.59405005959212       -0.58258902699198        0.04741098980920
H            3.67697745014633       -2.87813518544387       -1.29462061515809
H            4.48939952987789       -1.35491099269933       -1.41276696748898
H            1.89839418615788       -3.18814609292732        0.11256276286233
H           -1.12379993573858       -2.38078265248149        1.71657965191494
H            0.11355387399610       -3.54579628886328        1.50794734506606
H            3.28602917034423        2.19435629669288        1.14078704264570
H            1.64522524641451        2.72533372187295        1.39017546693072
H            0.96427773229456        3.31664812155915       -0.56259964666991
H           -0.47741680265949        3.95025929315770       -0.03812459575529
H           -4.54111030577041        0.92162850886649       -0.45680304719456
H           -4.63473093093834       -1.72644470837396       -0.64354708364182
