37
 energy: -65.765173560106 gnorm: 0.000565652969 xtb: 6.6.1 (8d0f1dd)
N            4.60519370049153       -1.88973849964362       -0.15941481145936
C            3.72736497377965       -1.14904547696586       -0.09282078930365
C            2.68431453521975       -0.20819455198297       -0.00325841141233
C            3.03633968350467        1.04699482694073        0.57069488101435
N            4.17700933990119        1.10407479379461        1.29717316060167
C            2.37440691974406        2.22752017664022        0.26628807349592
C            1.11782203311416        2.42562182347072       -0.31098616838092
N            0.91229573468527        3.62537094745935       -0.89171445669319
C            0.00954720309094        1.50902086133346       -0.22674847548574
C           -1.30391920278032        2.03446347902324       -0.09625089552399
N           -1.53148497331674        3.42974426474021       -0.01949189970211
C           -2.41525796732949        1.19339288678256       -0.02364468670458
C           -3.70169163149113        1.74082557256042        0.11909665257801
N           -4.74373368919119        2.21127185537015        0.24676072107300
C           -2.25519578517114       -0.20091020553918       -0.00775525866746
C           -3.16829136528665       -1.23356214159021        0.15117666118906
C           -2.44933187931901       -2.43300498048789        0.21679135199291
N           -2.97745844091378       -3.68551658943983        0.34167308549087
C           -1.06697915473986       -2.15888211038502        0.05872181426797
C           -0.09276854159184       -3.13318997262053        0.20428627096556
N            0.68874153602413       -3.97367758370297        0.33614981141864
C           -0.91988225792927       -0.74945552312017       -0.10610842954045
C            0.18689085291850        0.08622082420520       -0.26848797058142
C            1.45565622246757       -0.55216055464563       -0.57042881187209
N            1.42009705480772       -1.58970547094457       -1.42234012185315
H            4.55956636222853        1.99215804035018        1.56772015321444
H            4.75875017264771        0.28712636199605        1.37672068201974
H            2.93955101741423        3.13408497751382        0.45412411551211
H           -0.01816697665984        3.87581364812080       -1.19189303071962
H            1.63068237053493        4.32720367336462       -0.86123976557117
H           -2.51902775652121        3.62393350591333        0.10869497956876
H           -0.99668525380053        3.87987642459546        0.71413527010380
H           -4.23295015006086       -1.13155663047998        0.24551647555765
H           -3.91413986182487       -3.75497288836635        0.70300350152174
H           -2.34447389328933       -4.42170176306151        0.61140090780471
H            2.20906088141760       -2.21544857247312       -1.48312985541948
H            0.52771269012547       -1.94432786522562       -1.72686401690009
