26
 energy: -47.239396868649 gnorm: 0.000589009082 xtb: 6.6.1 (8d0f1dd)
N           -5.34527224412371        0.15875297225659        0.01155431594910
C           -4.22547688669842       -0.10005189418059        0.00790702349693
C           -2.84854881621697       -0.42015079531061        0.00221998913914
C           -2.58150653525379       -1.77833609926157        0.13461670472319
C           -1.36851850346413       -2.44056766766052        0.06091118752131
C           -0.11541354674702       -1.87149878059191       -0.06278024747842
C            0.27758249910868       -0.53341564687477       -0.02497420819373
C           -0.54457239869907        0.67012572862050        0.02545301744689
C            0.11822549264725        1.89756899097717        0.22573889599612
N            1.41658864510133        2.11117291886839        0.29738926190393
C            2.19725454268883        1.05809366027152        0.13548843229886
N            3.52974202528997        0.99006995601242        0.12720937817405
C            3.77326848241443       -0.32399038324071       -0.00473102627101
N            5.01841194881557       -0.80997349125424       -0.08667032661985
N            2.69060074067525       -1.14415550783461       -0.08005654326573
C            1.66286552607381       -0.29816536172606       -0.01163354149645
C           -1.95617139334225        0.68621270352521       -0.15685931099992
N           -2.54682624489798        1.84897460546534       -0.48162577825997
H           -3.46168407328608       -2.39932239911061        0.26007461869841
H           -1.40935363808889       -3.52017563719376        0.10765493100763
H            0.72578639205531       -2.55043093407020       -0.13648903225849
H           -0.45714307331796        2.79835689153723        0.40583368102618
H            5.15337707086750       -1.80392917258539       -0.06759995682174
H            5.78575863054179       -0.18328489190351        0.07215710277055
H           -3.55048282725018        1.90243916644704       -0.55465854084274
H           -2.00486056259221        2.68006115601796       -0.63802680664479
