31
 energy: -60.243527081202 gnorm: 0.000490999963 xtb: 6.6.1 (8d0f1dd)
N           -3.66998601627333        3.69660729173744       -0.12259820462327
C           -3.08578037367685        2.71066791381164       -0.07701984246617
C           -2.39563363255810        1.47298502279862       -0.02411792316852
C           -1.04323811208384        1.54773063187583        0.19655653261685
C           -0.04496485625740        0.55634541252224        0.16558986647190
C           -0.21505878246810       -0.86895913795739        0.10782408086204
C            0.92037322329403       -1.67467919504421       -0.08348906350898
C            2.21738838714558       -1.17526908187054       -0.15663959585880
C            3.28221792850866       -2.07399242145681       -0.39529382220968
N            4.11591211955240       -2.83698564776812       -0.58603488015399
C            2.42883642644656        0.19186383391328        0.01809579273202
C            3.53415148349902        1.06079020306987        0.04844819930330
C            4.88906153883756        0.74293747139397       -0.05550468804260
N            6.00873269557302        0.49828601374604       -0.13477962899546
C            2.97738714838076        2.34523001667548        0.21437213473657
N            1.64713319217939        2.33788402325342        0.27815282198899
C            1.27104346067112        1.05228986828477        0.17367631345276
C           -1.47489917021552       -1.53067000082169        0.30145090614426
N           -1.43900944161857       -2.80801064654709        0.72168549883639
C           -2.76737229368146       -1.00949578622783        0.03959103652781
C           -3.80661842846091       -1.97022973253915        0.03924505568031
N           -4.65784120156727       -2.74230999463323        0.03704264632037
C           -3.20162594899085        0.30647309916551       -0.21009947236637
N           -4.48343696401861        0.50117307609103       -0.56687119832116
H           -0.63146193590722        2.54376140250912        0.32463662310865
H            0.80620798658921       -2.73672476628518       -0.24939515575251
H            3.52061807209315        3.26989498129341        0.28755328902958
H           -2.29001668573247       -3.33647920392264        0.82694399463029
H           -0.57041396522345       -3.24471170789400        0.97518013516070
H           -4.84037197152654        1.43700867570270       -0.67454890200299
H           -5.11864701970922       -0.27508655837736       -0.65664372273305
