31
 energy: -54.641010483117 gnorm: 0.000616913894 xtb: 6.6.1 (8d0f1dd)
N            5.29323071763716       -0.93947221803400        0.24242200741765
C            4.17630001561560       -0.66817133277240        0.18025474275856
C            2.82656293561931       -0.33280278800776        0.10078838116162
C            2.32013665192884        0.97681426929860       -0.07771267323952
N            3.09467010558058        2.10119499674876       -0.19890887762635
C            0.91426843363219        0.89717950552560       -0.05499671424043
C           -0.07106002923340        1.87797700035556       -0.08308953421223
N            0.22085109845385        3.20584362298464       -0.14138365456958
C           -1.42371967515451        1.44922046736337       -0.04540466137720
C           -2.39609299803184        2.46315885930424       -0.01874470614447
N           -3.12902304189813        3.35045980848347        0.00864113160646
C           -1.81074064106287        0.09296948984488       -0.00162848997780
C           -3.17665160837752       -0.18349535254031        0.21272088860037
C           -3.84062474163337       -1.39409683393256        0.32024458544178
N           -3.47683057975395       -2.61623944534207       -0.00698663034185
C           -2.26539261647426       -2.95828923658699       -0.41852862800581
C           -1.06545725331227       -2.28476936886859       -0.37700533953887
C           -0.78298425278017       -0.92899741342287       -0.06946644195537
C            0.54228298319057       -0.50475372269024        0.03330383463375
C            1.74948354214217       -1.24140126443534        0.18169795565229
N            1.90022604487000       -2.58217520766992        0.36734077582750
H            4.08216025918925        1.91801035718392       -0.30932025737296
H            2.74585382139701        2.82636666964899       -0.80701560736692
H            1.11417512694595        3.50434091128801        0.21241072866714
H           -0.54688819223365        3.84832538639009       -0.01342086494418
H           -3.79194793942310        0.69187917733238        0.38654060988772
H           -4.87023850007512       -1.34397400133975        0.66445538105746
H           -2.23053937097306       -3.98063748212560       -0.78631943180585
H           -0.20873511147165       -2.85784355583830       -0.70493174023179
H            1.14029735743299       -3.08405546589098        0.79870827530803
H            2.82658024095290       -2.88674311275531        0.62742887473036
