35
 energy: -67.925979054117 gnorm: 0.000948577684 xtb: 6.6.1 (8d0f1dd)
N           -5.04776406140328        3.02944794707629        0.01425215062007
C           -4.11283420241745        2.36115883512971        0.02495585566768
C           -2.96890268734395        1.53681559271746        0.03012034407277
C           -1.79909639199746        2.13162013676437        0.48140448535128
C           -0.49744631215542        1.65501638794281        0.48752563630025
C            0.41818635684660        2.55103474535947        1.07415170280126
N            1.13860627691452        3.29836436261605        1.56983732059836
C            0.01453888060888        0.35894100013005        0.14659166973988
C           -0.83265537865871       -0.81250661911042        0.14441670495533
C           -0.23752398570218       -2.05244034189861        0.47726430394718
C           -1.02733536774995       -3.14740362951569        0.88825035074318
N           -1.58613272238681       -4.04569250046699        1.33415623026590
C            1.15040173785784       -2.22962667750289        0.51363472848399
C            1.95118460074381       -1.17281689608362        0.16689114033743
C            3.36853115471759       -1.08296678624878       -0.00061426183941
N            4.24814114673678       -2.08069724823330        0.14202681379992
C            3.66656920874341        0.24248584138529       -0.36546592774322
C            4.93702599382178        0.73012619094040       -0.67479904416194
N            5.98661901239550        1.12472532034053       -0.92858933263617
C            2.46961570846151        1.00471871181038       -0.40089554157250
N            2.43203971337968        2.25323879178884       -0.87890386626528
C            1.38343924292990        0.14147245950465       -0.03091162156499
C           -2.19020554422992       -0.83304275982036       -0.28816134835379
C           -2.62940772916440       -2.07483911001777       -0.80257307587488
N           -3.03438101210189       -3.00840266673025       -1.33880285342810
C           -3.14397271168938        0.19680835507980       -0.42073256831710
N           -4.34104077659436       -0.10627737606913       -0.96103120513803
H           -1.91613753684944        3.14609003273820        0.84930223338787
H            1.54768808703808       -3.20009854547249        0.77239905668385
H            3.94304906461955       -3.00146460314309        0.40228737310553
H            5.22988939307891       -1.91134850563853        0.00449293988837
H            3.30718991525821        2.72194199211048       -1.05212632053374
H            1.60768452600111        2.82280249163840       -0.80863365932878
H           -5.06500176825658        0.59198561607544       -1.00243749220814
H           -4.55565517075157       -1.05148567569571       -1.23330469258427
