29
 energy: -55.203244930464 gnorm: 0.000762430366 xtb: 6.6.1 (8d0f1dd)
N           -5.40957653194078        0.79226482647799        0.27992492155748
C           -4.26028102562396        0.76199992771904        0.25131127183253
C           -2.85563174129883        0.70680962017118        0.20891288740724
C           -2.15288110162417        1.76951990285454        0.79351416832730
N           -0.92357307727983        2.12034771211990        0.60335114197290
C            0.11754792981364        1.48835709158382        0.09446555293425
N            1.11503282696193        2.25868066849573       -0.29806667387517
C            2.35010575785935        1.77202655970714       -0.41241720702752
N            3.28263157244470        2.60120162963161       -0.90973934886275
C            2.63288532800842        0.46773902744140        0.02590521087944
C            3.79722566361101       -0.27072723857257        0.24665855721261
N            3.53217523860147       -1.51755132552860        0.63556579031973
C            2.19629655635724       -1.66958204013896        0.64050926465823
N            1.67987816200078       -2.81212358586838        1.12927577477719
C            1.53512835925550       -0.44469600966018        0.25910632518641
C            0.23054046125290        0.01093454906427        0.09901026122844
C           -0.88830059382312       -0.79329093292015       -0.24602699890150
C           -0.58118205916361       -2.09297624170067       -0.67233325166578
N           -0.34819944413581       -3.17538377502898       -0.99533217159228
C           -2.26059351259620       -0.45298273921440       -0.35112995959439
N           -3.08951236119630       -1.34596636309038       -0.93712882966470
H           -2.72213614764301        2.45427037411830        1.41590666248035
H            4.25370759909921        2.34896960310917       -0.88836076028149
H            3.01041377915060        3.54700432333099       -1.11429727448882
H            4.81780827377908        0.05344860302248        0.14776841137703
H            0.77641885036775       -3.13740249470783        0.82084806039421
H            2.37367880739230       -3.52107850445473        1.31451847072271
H           -4.08160954538447       -1.17675294317743       -0.93666314934594
H           -2.74602186894197       -2.23788959728582       -1.25093241486556
