24
 energy: -44.573847311553 gnorm: 0.000351599194 xtb: 6.6.1 (8d0f1dd)
N            5.41633321595781       -0.86933776012133       -0.00344689691390
C            4.29130551728695       -0.64617481728173       -0.00108521621056
C            2.90336205671972       -0.38057049255367        0.00085234785874
C            2.50678373172577        0.96064869593468       -0.00474663779001
C            1.22612703793608        1.46913336414827       -0.00209278846684
C           -0.01859328943995        0.80870839816517        0.00182461744371
C           -1.18115679894841        1.62073745840131        0.00164718347040
C           -1.05870029634750        3.02929846114665        0.00314826562191
N           -0.99749767620614        4.17514584689945        0.00459323115341
C           -2.48266293916148        1.10862726742792       -0.00071143405031
C           -2.65276485124369       -0.25685426351626       -0.00311526919132
C           -3.76098921829417       -1.13155014156454       -0.00508908901677
N           -3.37231459166582       -2.40654874846391       -0.00472558903451
C           -2.03758531122406       -2.43126977770048       -0.00233396224428
C           -1.49665963739209       -1.12833130652288       -0.00129480688008
C           -0.18598116062526       -0.64878050059924        0.00280423919124
N            0.75898625773621       -1.59630213271015        0.00982040918238
C            2.05117215834678       -1.50738219965762        0.01105004895494
H            3.31057536483669        1.68752020438978       -0.01035946111349
H            1.16245602969454        2.55144222132655       -0.00538217396928
H           -3.32286330351092        1.78840983894192       -0.00092513601575
H           -4.80349415640680       -0.87255248855321       -0.00654348219340
H           -1.49966297726890       -3.35981171970622       -0.00139892521131
H            2.54721923549462       -2.47579329483045        0.02008949512508
