29
 energy: -46.394358136586 gnorm: 0.000756437316 xtb: 6.6.1 (8d0f1dd)
N            3.73696487441024        2.57653531069932       -0.38359384412922
C            3.00121272245063        1.70047141537506       -0.26987308069833
C            2.17094609244341        0.56342134374289       -0.14070703465959
C            2.88788112543460       -0.62484407330093       -0.27766659670164
C            2.47970521028068       -1.92883287497773       -0.12120041437802
C            1.18727568768423       -2.38643683393287        0.18085368202023
N            1.04465283967659       -3.73926978844198        0.36345790204457
C            0.02127831286362       -1.62697685001807        0.21710127961501
C           -0.22815269252529       -0.25628309604169        0.05120403992301
C            0.77759750102164        0.79737902689498        0.06313432068393
C            0.37023579295414        2.12044901485142        0.24852240258591
C           -0.95996011035190        2.50031688882937        0.34618189529778
C           -1.94064231712762        1.54726668427846        0.18679959860555
C           -3.35192234650930        1.62725402628829        0.15694505882701
C           -3.84875731455997        0.36855736703145       -0.10295890769358
C           -2.77800907246187       -0.54209581458954       -0.22878721414242
N           -2.93397364663378       -1.87650486536573       -0.53367960655826
C           -1.56761804959799        0.16566095333654       -0.01476895649714
H            3.94188752498184       -0.48911236398221       -0.49509484624230
H            3.24267544659787       -2.69160350781122       -0.21196738231844
H            1.87088423679971       -4.28350191732708        0.54211557293707
H            0.19311592030921       -4.07563582910358        0.78022239656098
H           -0.86328565444688       -2.20338122691016        0.45645606247740
H            1.13242407400087        2.88311476896361        0.31381283428499
H           -1.21425435169504        3.53784071200477        0.50826295616512
H           -3.92682227906114        2.52441014772890        0.29370641839827
H           -4.88538318709133        0.10404877027245       -0.21638354600550
H           -3.85842676688236       -2.11272569168455       -0.86528855230113
H           -2.19198517666534       -2.28589062401064       -1.08417059530110
