33
 energy: -62.923423290944 gnorm: 0.000996277277 xtb: 6.6.1 (8d0f1dd)
N            5.64182857311164       -1.34788055551251        0.39454643754734
C            4.59550323886340       -0.88480351802099        0.26632194605946
C            3.32908842800339       -0.29943871908444        0.10117454618758
C            3.31830195618543        1.01733728787511       -0.45638190494813
N            4.40349748730535        1.42126384536964       -1.14222241953917
N            2.39675152905562        1.93262184017876       -0.27656295947188
C            1.16025367908590        1.81706509690514        0.17799372330645
N            0.57882668692250        2.94455067371823        0.56905122846455
C            0.33269685760555        0.62600172646825        0.15022284867459
C            0.83118986984495       -0.71359942773339        0.15119838550702
C           -0.06722011046130       -1.77493934573861       -0.04083287933493
C           -1.43576264210409       -1.59691397602369       -0.19326891711502
C           -2.25638024957588       -2.71703642530205       -0.43909455602829
N           -2.88960416036421       -3.65299900758366       -0.63709622340291
C           -1.96313692255833       -0.30645111657365       -0.07001262928786
C           -3.24789075178594        0.25429126841710       -0.07910577420605
C           -4.49189900572687       -0.34628835859618       -0.23607876611333
N           -5.55262646676496       -0.77332504398568       -0.36600937886695
C           -3.04190768790172        1.65109086144897        0.10908725155425
N           -4.01651860583641        2.57800847443013        0.22974964144942
N           -1.74480033318470        1.96343308997317        0.22481186923149
C           -1.05444500791457        0.79949530453075        0.11866068673479
C            2.20352362254896       -1.06040001008336        0.43919783598670
N            2.42678642512813       -2.25658389067897        1.01901664853034
H            4.44871224134668        2.37861851673729       -1.44411916038671
H            5.21428041992416        0.83204394321193       -1.22057113095535
H            1.10004801398836        3.80065700904017        0.47033110563921
H           -0.46056360097701        2.92101660926224        0.60816538739589
H            0.31134751302315       -2.78234653379744       -0.14287431658048
H           -3.76451161692206        3.54933624097023        0.19236598035829
H           -4.95692453304896        2.31413519084529       -0.00690768652894
H            3.36997292120964       -2.56665333704791        1.18302585686089
H            1.66337802287522       -2.84121963292164        1.30834797967756
