26
 energy: -47.250508434674 gnorm: 0.000872200500 xtb: 6.6.1 (8d0f1dd)
N            3.90622375123227        2.44885198371292        0.81359849683302
C            3.05129897685038        1.71954366708452        0.58377915877103
C            1.95350955270394        0.88174546451269        0.29374687249161
C            0.68496493473280        1.45715839074657        0.14368786304699
C           -0.45510906908643        0.70157997938833       -0.10335179239604
C           -1.70364198380414        1.38405665486400       -0.39776220920000
N           -1.64148896954405        2.58947457617969       -0.98197425557488
N           -2.90899978077684        0.97902573151359       -0.07800280736118
C           -3.27319636203704       -0.24799554257410        0.26569441725733
N           -4.40635199664302       -0.36373120865859        0.97511792024652
N           -2.73863642795480       -1.39421814913929       -0.16423277935586
C           -1.48144451965483       -1.56849940558772       -0.45757496924774
C           -0.36942410748825       -0.72813714457427       -0.22483344818382
C            0.91452055100012       -1.30743125023074       -0.16643403010079
C            1.41158519615491       -2.60191503187109       -0.26449389364311
C            2.79401384426795       -2.49149893623196       -0.05787026194599
N            3.20410147237411       -1.24401992931888        0.16985423935629
C            2.09777881578631       -0.48855276062514        0.11791319339433
H            0.60193625690258        2.52824284438659        0.26806018733822
H           -0.76338178119566        2.99815451550560       -1.24523460302523
H           -2.49976737108632        3.08026426310991       -1.16555345684316
H           -4.92246275266495        0.45984689354614        1.22630804565558
H           -4.78944949808306       -1.27817756896055        1.13416790091548
H           -1.26288176988508       -2.56186545374507       -0.83606222608094
H            0.87444632970234       -3.51134781701742       -0.45257187854469
H            3.51040952999805       -3.29433440701465       -0.06992777920416
