30
 energy: -55.723153939020 gnorm: 0.000592703459 xtb: 6.6.1 (8d0f1dd)
N           -5.72885110055948        0.28282754537468        0.28989311981797
C           -4.59230665435905        0.11989287578245        0.22226854306192
C           -3.21494556842178       -0.08252158215568        0.13571610014194
C           -2.57550567852548       -1.33640946381703        0.09402617410309
N           -3.17951315182302       -2.53329506511458        0.12977977554914
C           -1.16342401727353       -1.10709333612992       -0.00266130945289
C           -0.09302254716748       -1.93678399396517       -0.17705729927108
C            1.19684885829271       -1.36916440585495       -0.23438984768008
C            2.23204287937131       -2.28572638800417       -0.52217309406868
N            2.96263533406885       -3.10457677098838       -0.86069749773605
C            1.43992427264350        0.01154388523201       -0.10007036191020
C            2.78120282089313        0.45550444807247        0.14345380463950
C            3.72323332537638       -0.49154454866785        0.60735616068345
N            4.53558888745820       -1.14946294495150        1.08399941456948
C            3.29917342423761        1.74678392871975        0.09471936939359
C            2.64980841375647        2.93489675985102       -0.19385547672530
C            1.27690396574758        3.09512255108922       -0.38204728731433
N            0.28269393072479        2.25775604346155       -0.27099414544979
C            0.30134145942445        0.91190945656140       -0.10936337744588
C           -0.95364007169819        0.31928825675971       -0.00236550825097
C           -2.23204244257179        0.94282563271068        0.06406670541031
N           -2.41312306042933        2.26033746836026        0.05313295861630
H           -4.18200767339637       -2.59049665773853        0.17910212311248
H           -2.64100683187616       -3.37895276569584        0.07755933466856
H           -0.18893855640714       -3.00941646755244       -0.26663986813170
H            4.36190674284441        1.81670148029010        0.29889876244881
H            3.25448230388780        3.82834506600579       -0.25314529863505
H            0.94292019138712        4.10337334861501       -0.62216764065497
H           -3.33305500412543        2.66646711816937        0.04425609073836
H           -1.56155627598170        2.80195181898014       -0.07768260812574
