32
 energy: -59.963406076505 gnorm: 0.000893543148 xtb: 6.6.1 (8d0f1dd)
N            5.02289158348659        2.69039322535913        0.56558659825078
C            4.10529658893467        2.02529188541547        0.37566274810084
C            2.98711201749925        1.19316657285057        0.16303144551923
C            1.84561914004829        1.81090833169458       -0.32850408134266
C            0.56104555524569        1.31287332831689       -0.48790233151697
C           -0.30530274397186        2.21343137292080       -1.14120754988880
N           -0.97346669918765        2.95948341233223       -1.70606117107981
C            0.01176428435824        0.03022618637593       -0.15691470502583
C            0.84297793321074       -1.15931811693046       -0.13092158658761
C            2.21996311900005       -1.19193051092033        0.10662516131589
C            3.16845339751884       -0.20406419658450        0.37015507214777
N            4.38535527662274       -0.61319988433003        0.79277326551039
C            0.20240425371815       -2.42185935891279       -0.30732311564694
C            0.97872595874962       -3.58998436596630       -0.44312532880274
N            1.59230397847308       -4.55508393310333       -0.55347980199816
C           -1.18028487316508       -2.56330289186638       -0.33281750054703
C           -1.96718227383086       -1.45251605029172       -0.11297038735722
C           -3.35862000928623       -1.32515094217862        0.02363906244101
C           -3.64562153620543        0.00753684360463        0.30099645090925
C           -4.90101780981668        0.56484344711185        0.56389285816521
N           -5.91274423390076        1.05999897480762        0.79102856693657
C           -2.43506511539305        0.76441428162136        0.31110390868276
N           -2.40336565694820        2.03888644532473        0.72777793789408
C           -1.36266132662625       -0.13881829462209        0.01206412088865
H            1.96967388691286        2.85432465225964       -0.60230637681207
H            2.62316899348532       -2.19694824149282        0.17937701246362
H            5.12793763414325        0.05181214007032        0.92892382085336
H            4.59187269823394       -1.59363892286968        0.86798672642492
H           -1.61897165987408       -3.54039168785053       -0.47179138713497
H           -4.07595753505568       -2.12039682945707       -0.05309857924501
H           -1.58563278190423        2.61426100379932        0.63891448083032
H           -3.28533659527932        2.50341342041884        0.87827075254266
