30
 energy: -50.112551865180 gnorm: 0.000735006352 xtb: 6.6.1 (8d0f1dd)
N            1.40411824018491       -2.74673889404514       -1.17869014283542
C            1.39823783982634       -1.69504577524229       -0.70380914702614
C            1.45940380490568       -0.40694461359624       -0.15256573582839
C            2.77163877155025        0.14511664360158       -0.11164165481230
N            3.80088428087704       -0.66979026109207       -0.48519526158684
C            3.11017493552763        1.39674934737886        0.39540899634385
C            2.22792659142789        2.39853225463671        0.78903333857516
N            0.95636317214547        2.53938515594283        0.56561885888407
C            0.04744468250739        1.65886602460954        0.13767610531041
C           -1.17553285132472        2.19072008990790       -0.24075049714277
C           -2.32451495314510        1.41072943504405       -0.41570440932164
N           -3.48243724421841        1.98046568118470       -0.84702986171984
C           -2.24383459046226        0.05496832678578       -0.09081922288465
C           -3.22473881088009       -0.94800631807818       -0.02106172032757
C           -2.62942926480756       -2.12117438257914        0.40823973124995
C           -1.25388256573960       -1.90822841830490        0.58499673868883
N           -0.43678412415212       -2.80819568866790        1.19559837017091
C           -0.97093122580737       -0.54440650545254        0.24154777725804
C            0.20911424322920        0.19400680300318        0.14807636687245
H            4.71695002209142       -0.27181041486941       -0.59055166974999
H            3.60623728520046       -1.53453812366394       -0.96001095027535
H            4.16750560639173        1.60783100603929        0.49097215979138
H            2.66832767804783        3.25881992928113        1.28917925951349
H           -1.23955019210769        3.26401813223620       -0.33909290418338
H           -3.55220048190818        2.98343319585032       -0.84595823851220
H           -4.33613522603070        1.46003005984993       -0.74999426021240
H           -4.26849492930697       -0.83267886608625       -0.25475470512255
H           -3.12959874295757       -3.05463942078760        0.59158586430625
H           -0.77301032861254       -3.75610929846182        1.23771526818512
H            0.55993223304799       -2.70911122402477        1.11324671909083
