31
 energy: -54.663010497043 gnorm: 0.000503753358 xtb: 6.6.1 (8d0f1dd)
N            4.19312894407222       -2.78290017236453        0.36025912240751
C            3.25377705444188       -2.13357069436248        0.24347237693365
C            2.08815392964784       -1.35603687565028        0.08470043678406
C            0.86911089397974       -1.98891998022496       -0.09242036263303
C           -0.33654112457864       -1.27676055639326       -0.24111018854335
C           -1.55713600010346       -2.05168911251315       -0.36265659277742
N           -1.44283660444735       -3.31641591901384       -0.83645207447671
C           -2.78845062659376       -1.67116643242183        0.13976609317622
C           -3.15658718365997       -0.37042715453376        0.52990735071216
N           -4.23367533670263       -0.18752326579061        1.32229591960323
N           -2.65256723424761        0.72684310541765       -0.00579473065213
C           -1.49245951779661        0.90889406135063       -0.57078507815606
N           -1.39812211692745        1.88893868183215       -1.47688485960567
C           -0.29312150577522        0.14210369628949       -0.25364135590208
C            0.92175724311976        0.79719376001331       -0.03762793688369
C            1.27876363911403        2.16514358977661        0.11580848746069
C            0.43824734580997        3.26967107962203        0.13231765542760
N           -0.26187647206829        4.18755738533337        0.13421311898355
C            2.66822191446891        2.22025171954650        0.34664784211907
C            3.19804990905347        0.94113419074936        0.34067526836884
C            2.14899042231220        0.04346247806959        0.13063292104717
H            0.85372220521700       -3.06770431148231       -0.04080599885850
H           -2.26068263470387       -3.89418819854111       -0.91051866274240
H           -0.60262396683643       -3.61812376174512       -1.29385244691450
H           -3.54250018986782       -2.44186281666740        0.23747756178104
H           -4.48245069452710        0.75112295674134        1.57913353551066
H           -4.66386818414037       -0.96129839678526        1.79295243177225
H           -0.48925829363641        2.21579217373615       -1.76165956677310
H           -2.16827487452491        2.53322516040323       -1.56121063848203
H            3.21630960595912        3.13183501364874        0.50750812464261
H            4.22803391094128        0.67665962805959        0.49134705887045
