30
 energy: -50.919384503340 gnorm: 0.000690677790 xtb: 6.6.1 (8d0f1dd)
N            1.24787196506802       -4.39359611099100        0.21545138106981
C            0.83090109229520       -3.32574995908451        0.13353088668888
C            0.30000114079069       -2.02494866049338        0.05479701362076
C           -1.08164962964183       -1.82929054697404        0.10048611767826
N           -1.90924883129776       -2.93765679584444        0.16093582119191
C           -1.64300737391377       -0.51767663210720       -0.00379360195282
C           -3.00326498428357       -0.43910018149712       -0.27411816572990
C           -3.88411814643070        0.63957247561978       -0.35188403628721
C           -3.64894699153091        1.96345854390049       -0.05363591357519
C           -2.42752163800065        2.54724323702649        0.28582685972669
C           -1.17911661066275        1.97071376055516        0.29208967062082
C           -0.74330906390576        0.64638769339303        0.08379250852019
C            0.62639292755911        0.41307036831494        0.00173867855971
C            1.74800900496511        1.29228745399776       -0.03968443595769
C            1.78719371425311        2.67998619515024       -0.05500440804430
N            1.89628125859152        3.82869306006984       -0.08473195987509
C            2.91957706331008        0.50015558419461       -0.12019281544724
N            4.18641470242177        0.98769481021263       -0.13284123397712
C            2.55460527473566       -0.85759839936380       -0.11941652414599
C            1.17155541287455       -0.92701516539212       -0.04868020021862
H           -1.42310809398700       -3.81273679880778        0.29483577577215
H           -2.74928830730817       -2.85673170758570        0.71104744037084
H           -3.46996393230458       -1.39125547244909       -0.49604605792643
H           -4.89660186490090        0.38546003223929       -0.63948367358240
H           -4.50118797353929        2.62954503741254       -0.09722495489805
H           -2.45661862428322        3.60496353747021        0.51319029026173
H           -0.36778345922424        2.66082890326657        0.48855571758297
H            4.31394686045551        1.97226241905287       -0.29702823775280
H            4.93495133947016        0.37303054392843       -0.40080808400501
H            3.23275299962621       -1.68924282071289       -0.16024696708933
