25
 energy: -48.318649425588 gnorm: 0.000788604879 xtb: 6.6.1 (8d0f1dd)
N           -5.77164390548022       -0.78888131481914        0.81045947709483
C           -4.67693487419720       -0.50823871040129        0.61010164793344
C           -3.33966851818247       -0.16220404991008        0.36703303752372
C           -2.85880308410306        1.14749838215442        0.19048213613490
C           -1.47310557875091        1.07528855006517       -0.00931872177173
C           -0.53687675060354        2.05819631319150       -0.30975183187832
C            0.80445194934351        1.72448877856101       -0.45084315154110
C            1.77749284368940        2.72141582999242       -0.66569823173983
N            2.56260834558566        3.53694507960237       -0.85111587075356
C            1.22930496550144        0.38214803190636       -0.26063612592234
N            2.46160625213381        0.13619400936375        0.08934845724580
C            3.05389670966598       -1.04296082196413        0.28376075397703
N            4.07502706951458       -1.04830433962628        1.14811369527918
N            2.84638126799661       -2.16571091623856       -0.41300657649011
C            1.69171194221489       -2.40689252888594       -0.98566454365969
N            0.51183558994985       -1.89832651860774       -0.72612915336033
C            0.20447580100424       -0.70436654269916       -0.27252043813708
C           -1.10486087517551       -0.32338773749175        0.02866376869330
C           -2.27266563097780       -1.06697480030750        0.25735318979756
H           -3.45707363389082        2.03965778548248        0.19225423027272
H           -0.83511425948593        3.09417067480257       -0.39169462057118
H            4.65139586348034       -1.86924324637582        1.21271062428985
H            4.37492157581361       -0.18139492001575        1.55924348268156
H            1.68290829929028       -3.24360749240138       -1.67759166394401
H           -2.33665197523511       -2.13481645567904        0.34668817014613
