25
 energy: -43.508502899744 gnorm: 0.000615194939 xtb: 6.6.1 (8d0f1dd)
N           -5.08449952504289       -0.96972097329421        0.33003858878094
C           -4.00780763302912       -0.58425231322359        0.24149891956841
C           -2.68196217117053       -0.10674302894133        0.12458825928785
C           -2.44883972916221        1.22246579928753        0.48933155581913
N           -1.41672839637346        1.95324196460782        0.15026213943763
C           -0.23550688393695        1.60865921119339       -0.28398501470151
N            0.46470724633661        2.54021742373157       -0.94252370841041
C            0.42183145578515        0.32409780508603       -0.04647887294155
C           -0.32042126065818       -0.89368781614102       -0.24995011939366
C            0.44889277590977       -2.10027938343192       -0.37843677197504
N            1.72929643829423       -2.19840963122950       -0.21906811278388
C            2.41947345431071       -1.09107297136668        0.06923753457948
C            3.77940000332586       -0.90743649501567        0.22517916988596
C            4.00397928960268        0.46402174433935        0.48241715027621
C            2.81610174034620        1.15869533443752        0.44170625077357
C            1.77624398440194        0.22841119546746        0.17691596396208
C           -1.70502521592989       -1.02122531884445       -0.29528993123508
H           -3.23235241251016        1.76565938232362        1.00690685121695
H            1.41070468292042        2.35260462658024       -1.22822737884791
H            0.04205839238247        3.43257587486485       -1.13480081120128
H           -0.08033156841843       -3.02383478511086       -0.57455358469256
H            4.53174608816099       -1.66889994085379        0.15713149665384
H            4.96995828514183        0.89747590366703        0.67289224270057
H            2.68897510934973        2.20354114947815        0.66436041966644
H           -2.07634155403682       -2.00833805541053       -0.54921248542639
