34
 energy: -62.608679329072 gnorm: 0.000920660373 xtb: 6.6.1 (8d0f1dd)
N           -4.96991478805505       -1.66894658691205        1.21045910022090
C           -3.98139878537112       -1.22479694163041        0.82702976872271
C           -2.77582172713465       -0.67203231208517        0.34735027848994
C           -1.81061714875312       -1.61158799671034       -0.04724268076249
C           -0.47198993078192       -1.46325617291539       -0.32957736962383
C            0.31298611622663       -2.67518219909821       -0.51155453359685
N           -0.31403026087737       -3.86109415649030       -0.78218234192404
N            1.60684645751983       -2.74339339302898       -0.34758472920466
C            2.26275941782360       -1.61987555170749       -0.02463994882550
C            3.60087017645067       -1.46316694812697        0.26118652498244
C            3.84441630998513       -0.08586559088646        0.47116835837589
N            5.04541267316852        0.46623660348635        0.76437021635933
C            2.65197314710670        0.64050884096087        0.26419511730110
C            2.53949043902224        2.00592770394021        0.47992414415670
N            2.47326515299643        3.14482431496531        0.65766327438995
C            1.62217587800894       -0.30110441194031       -0.04499730233412
C            0.26609997673984       -0.21371068397632       -0.29474731861506
C           -0.35149530142442        1.05398104081136       -0.62887373969963
N            0.41820756478997        1.90374043257458       -1.32653696610553
C           -1.65689027862304        1.46473453228780       -0.32873704444507
C           -1.96646867231533        2.80712245159566       -0.63307536737728
N           -2.24260691078901        3.89449543314783       -0.88745642951854
C           -2.71697669029051        0.73217410564340        0.27605050692096
N           -3.77531201506973        1.43536557934400        0.72889300312275
H           -2.17140352530984       -2.63234804981555        0.00040833341900
H            0.32433617035494       -4.62562642988814       -0.93572977618409
H           -1.14409466497878       -3.86128276702525       -1.34955114502808
H            4.33316712051750       -2.24307205314515        0.33187170375735
H            5.79101522897009       -0.13279121526945        1.07252905964548
H            5.07255711141008        1.43093883745420        1.04987484901083
H            1.38882715535856        1.68588057996892       -1.48044861540849
H            0.12243075255599        2.85645525745829       -1.47238838503996
H           -4.58362443676173        0.95294725020310        1.08515461174558
H           -3.80507989707304        2.43591799071178        0.62612195677146
