31
 energy: -59.447203801347 gnorm: 0.000680448289 xtb: 6.6.1 (8d0f1dd)
N           -2.82180239921579       -4.01343209371980        0.02050083736809
C           -2.44816727555166       -2.92759034162753        0.01194535229766
C           -2.01571302631113       -1.58108992766760        0.00140069660285
C           -0.65981156241460       -1.38665004753396       -0.12996007304942
C            0.11263692040208       -0.21970233913832       -0.06440858036715
C           -0.33776375584219        1.15460216081368       -0.02455988063350
C            0.64826560110245        2.14853352417635        0.18446945760704
N            1.94466105618253        1.97175339187459        0.26155163180654
C            2.39685112875797        0.73259945993101        0.11197893965591
C            3.68698220168064        0.19423443394991        0.09333452562019
C            4.92806892471450        0.81382878121787        0.17550288872556
N            5.98580903477028        1.26335064269646        0.23448032284496
C            3.48611940083564       -1.21682794530032       -0.03738246348634
N            4.45633560798544       -2.13851937925452       -0.09633401581259
N            2.18664508602707       -1.56001725693117       -0.10138708510615
C            1.50149384543876       -0.41182978150078       -0.02891337570982
C           -1.68424963710772        1.56740056981932       -0.21980550362388
N           -1.90088823811649        2.84536906365167       -0.58545839207840
C           -2.86640483372098        0.78976628329159       -0.02762080073382
C           -4.06727230641382        1.53165513507255       -0.01772160972529
N           -5.05147940138491        2.12770853676092       -0.00902804836280
C           -3.04259803811886       -0.59398668120562        0.14171376411176
N           -4.28335133350135       -1.05134237086090        0.39418230779310
H           -0.05590681848812       -2.28274387853411       -0.22442348593131
H            0.35245511446387        3.17485240556553        0.36740261344821
H            5.42019770926975       -1.85987382022511       -0.05426136025247
H            4.20706137063461       -3.10691037472044       -0.18483326098375
H           -1.13142561385246        3.46706281993114       -0.75810865071281
H           -2.83909663678339        3.20375671026286       -0.65887008803524
H           -5.06227935862706       -0.41666004148170        0.45812053864640
H           -4.45220036571615       -2.04212546771344        0.45569035027645
