29
 energy: -50.401082621311 gnorm: 0.000842847674 xtb: 6.6.1 (8d0f1dd)
N            2.74458707475644        3.34584687119005       -0.14454238963520
C            2.30541086603983        2.28116723424372       -0.08598288950560
C            1.86248998342324        0.94654941751833       -0.02812433926794
C            2.92383562078954        0.00264083337094        0.10285804899097
N            4.17734559165279        0.50595327288990        0.25973077002848
C            2.80705642492105       -1.37907577304709        0.07557518663887
C            1.63880473076507       -2.14522030832781       -0.06880152432548
N            1.79262428139677       -3.49279683275862       -0.17020048042094
N            0.37221675011267       -1.78228853107507       -0.06298410317259
C           -0.18178619566421       -0.57694002099046       -0.00796837217949
C            0.45904462008489        0.73548271852114       -0.07065854432138
C           -0.35834854562942        1.88002079226870       -0.14746788130591
C           -1.73714709293902        1.85227170346162       -0.10639972931118
C           -2.36607205707567        0.62777990966497        0.01961931732081
C           -3.71348182967933        0.18057795748017        0.10297479388268
N           -4.83537556386298        0.92620073110970        0.05799236234355
N           -3.77782954154142       -1.16750060455928        0.19650430256007
C           -2.52739377067246       -1.61620711957099        0.17225523161917
C           -1.58264592564696       -0.57042148948381        0.06657544740424
H            4.96607926994497       -0.11408159420977        0.27128634007204
H            4.33964283067080        1.49637289800454        0.20677038259313
H            3.73268672319428       -1.93717182893424        0.14945382605441
H            0.96405938415769       -4.03502086117451       -0.33822495937880
H            2.69422940931563       -3.90776345496019       -0.31566514077825
H            0.13056214985187        2.84031128262707       -0.22779233360403
H           -2.29487441486824        2.77671695379421       -0.16494591641965
H           -4.77893239295982        1.92321257032790        0.16153685704032
H           -5.70864431141909        0.46410762905640        0.24243671712896
H           -2.32377658131887       -2.66824430463758        0.23909823854876
