26
 energy: -48.025223377721 gnorm: 0.000947171703 xtb: 6.6.1 (8d0f1dd)
N            1.21583135059910        4.21547197042729       -0.59812272534322
C            0.76553727948814        3.17653865347200       -0.41214796521552
C            0.17144405689215        1.91356314788726       -0.21468942069956
C           -1.22081479428338        1.79961409999916       -0.26523872289200
C           -1.78549662482989        0.58177694230262        0.02213715795764
C           -3.12595009146743        0.11141412633035        0.15271264751188
N           -4.25851549500296        0.81345472041577        0.03262924414003
N           -3.15092615175313       -1.20679488358510        0.44523758749526
C           -1.89545514002986       -1.63310373358972        0.47935408452165
C           -0.96546405578661       -0.59689231717736        0.22159543507918
C            0.42376584756933       -0.53031909354261        0.11331650354205
C            1.23145076502106       -1.66829276673758       -0.16299121053436
C            0.57151128504563       -2.87696607595037       -0.48466223846544
N            0.11939048159283       -3.89421695432084       -0.76625248473136
C            2.62172076724917       -1.75774298487027       -0.32190363513980
C            3.59442732624371       -0.84068482765661        0.01721539353519
C            3.32315796870491        0.41053945185291        0.58912831973201
N            2.23159472343419        1.09848221307130        0.50053741865022
C            1.00372181619864        0.81092809854515        0.09700618507072
H           -1.81532898888204        2.67801092708324       -0.47379709007747
H           -5.13355811550445        0.33051748085635        0.13690780463840
H           -4.24633554173962        1.78999096255479       -0.19805252720623
H           -1.69010545313447       -2.65918911940247        0.71846093372598
H            2.97013235364738       -2.71825638342303       -0.68532091455314
H            4.62881499954326       -1.13347865604959       -0.08712755448745
H            4.12421807798395        0.92107417400740        1.11466009994514
