24
 energy: -43.792057260430 gnorm: 0.000934313962 xtb: 6.6.1 (8d0f1dd)
N           -2.81420635907681       -3.11464318917702        0.29375110152831
C           -2.32116713893138       -2.08273259524172        0.20455616854282
C           -1.77799719140603       -0.78059499517827        0.10071922223701
C           -2.60140972837232        0.26408727576302        0.56359251158080
N           -2.48345512090972        1.54965541169556        0.41263596755661
C           -1.42069960171512        2.16242153998487       -0.14276534635642
N           -1.66949347244334        3.38245874050764       -0.64751652501538
N           -0.16345091214851        1.78281608575694       -0.09282420991101
C            0.33812633318694        0.56513514699923       -0.06387387339918
C           -0.42258570331547       -0.68937000356302       -0.29111939648160
N            0.17585379638465       -1.81191669602542       -0.65133590590998
C            1.49240584579133       -1.92757031154308       -0.63571314087386
C            2.29661512642290       -0.93408436157804       -0.10800697973826
C            3.68875759413929       -0.80101441071353        0.08549814343313
C            3.94905667881052        0.51568038035691        0.44028874750208
C            2.75380886379526        1.23648530172644        0.47609009331750
C            1.70319718630636        0.35853295209972        0.15940670904857
H           -3.51136966691583       -0.03381523506692        1.07782925627185
H           -2.58775271462734        3.77425928273072       -0.53552474315053
H           -0.90059757105194        3.95936007402040       -0.93923396546653
H            1.88718886947507       -2.85250262096323       -1.03564829631193
H            4.41238377267190       -1.58541086083477       -0.03687445702750
H            4.92078628270618        0.92020555264041        0.65903206897327
H            2.64356141082185        2.28108160640424        0.69871498624973
