28
 energy: -50.680773927333 gnorm: 0.000443611721 xtb: 6.6.1 (8d0f1dd)
N           -5.45328830117749        0.33899685521715        0.04360232933450
C           -4.30338657256530        0.35499083834330        0.08083148657479
C           -2.89863446676289        0.35486339822848        0.11272384037993
C           -2.27544837754820        1.48464166526940        0.65933461617107
N           -1.04580618820983        1.88477881104360        0.56962653402078
C            0.05078862865335        1.26510608507116        0.15567987940068
N            1.06348128662228        2.07048099090864       -0.11511004946660
C            2.31021813396860        1.61247711135142       -0.24796266834691
N            3.23779083640540        2.51468704444739       -0.61199724119947
C            2.61051343012336        0.26650460343054        0.01160081602570
C            3.76307359887453       -0.52369682085064        0.06747345556225
N            3.47590908683060       -1.81034800338390        0.28820566881123
C            2.13834126521356       -1.91388874542907        0.35812530432210
N            1.54455576508294       -3.12451200692851        0.56247772563234
C            1.51034729658390       -0.64893907158607        0.18577521404126
C            0.18919902741271       -0.20521913878715        0.10141444034959
C           -0.86536142212519       -1.07231124903027       -0.19221925885739
C           -2.23073770618484       -0.82382696766196       -0.32718258698595
N           -3.00508377215059       -1.82885281908101       -0.80753573127254
H           -2.92601197694140        2.18954038246868        1.17225639979261
H            4.21184439854370        2.27457863829297       -0.61804678765098
H            2.94990576348272        3.47248769590940       -0.71241866522045
H            4.78845462981070       -0.21505753671412       -0.03086236850134
H            0.66226633395761       -3.12364784247587        1.05018290934225
H            2.19075584902932       -3.84917882277476        0.83762688105895
H           -0.56154043890048       -2.07832809751309       -0.46082062833891
H           -3.99535105667215       -1.69576977058308       -0.91791216808502
H           -2.58877116674942       -2.68514798926468       -1.12492548845901
