28
 energy: -50.681862653737 gnorm: 0.000870459724 xtb: 6.6.1 (8d0f1dd)
N            0.59292914606021       -3.80191758085904       -0.61840196002680
C            0.86414894944965       -2.70480517675695       -0.40992478089553
C            1.32330124080350       -1.38598738454585       -0.20105424454125
C            2.72071494977547       -1.32319392461887       -0.21117160946837
N            3.56962774425122       -0.35112894098341       -0.00054068472543
C            3.26051749428867        0.94102955724533        0.15124044978614
N            4.34082162445937        1.70269938153960        0.44091378446541
C            2.02921428286825        1.58510723839738       -0.00177795299504
C            0.73206341206013        1.07855038123501       -0.12172938038404
N           -0.18578517526272        2.04093304699825       -0.27267275115537
C           -1.48641488362380        1.78371575726888       -0.23819629832423
N           -2.31896340259722        2.84109102696562       -0.43224399740087
C           -1.95117335228045        0.49719625671810        0.05108083346544
C           -3.19856661043909       -0.10027964838202        0.27939045435276
N           -4.43079503926352        0.48396924993839        0.32349758941672
N           -3.07295965253597       -1.44418667724553        0.43908871920748
C           -1.79299102206109       -1.74141904356503        0.32169624797118
C           -0.99425417942982       -0.58631040972349        0.08899303450060
C            0.36920298803054       -0.33862322497197       -0.06186052965861
H            3.22110190730774       -2.27391263252435       -0.38500295927116
H            4.27611821968827        2.70153206795874        0.50433581939415
H            5.23717339501954        1.25097048162598        0.48306529352404
H            2.05859102985411        2.66754418457881        0.01986558954755
H           -3.25539858758332        2.65272866386020       -0.74757143716371
H           -1.87774258361970        3.67964820672013       -0.77476258945930
H           -4.48231654973930        1.42303538837277        0.68628584292645
H           -5.15543365843311       -0.14047728303055        0.64517712521943
H           -1.46904839904479       -2.75724254711574        0.43595994099102
