29
 energy: -55.992586575839 gnorm: 0.000724814147 xtb: 6.6.1 (8d0f1dd)
N           -5.26229413142353        0.78241553708378       -0.27329400906109
C           -4.27676082567750        0.20327347551796       -0.18127232353034
C           -3.07729054205393       -0.53714110541448       -0.07300591995321
C           -3.16428207973298       -1.92455445478189       -0.22176701014574
N           -2.27558249193034       -2.79485689177549        0.18100795342872
C           -1.00965988448665       -2.67456926012055        0.44072217369932
C           -0.10913802683241       -1.65187796522630        0.07146502189440
C            1.25704164710546       -1.97319650606122       -0.05130189584184
N            1.67273293850941       -3.27367822453834       -0.06091966024852
C            2.24224588686051       -0.95805038827317       -0.13547498972890
C            3.59610468476539       -1.31544105827795       -0.28295531146881
N            4.68139274107559       -1.66380858825068       -0.42031998350425
C            1.86264068851209        0.37480965190646       -0.05452149329752
N            2.65471456696179        1.45532948846353       -0.08147215207255
C            1.84302808922799        2.51129455917205       -0.00373819480804
N            2.30353014130534        3.76612151424190       -0.00009866831917
C            0.45449226800443        2.13220920172814        0.07972027312471
C           -0.57947040843444        3.05402465322463        0.16899205494750
N           -1.38945163010388        3.87010214033805        0.24521214400697
C            0.45342630624511        0.73077989197416        0.05245230256064
C           -0.55909119504951       -0.24933749547612        0.04360725882032
C           -1.88014482742570        0.18196095318806        0.08818435849462
H           -4.08360647139038       -2.35595480366027       -0.60140943109695
H           -0.59700290291803       -3.53556830315808        0.96049138223402
H            2.64773398011113       -3.44470287514476       -0.24666219409668
H            1.03033896082059       -4.00720315004076       -0.29944937975236
H            3.29531275225584        3.91628192457704       -0.05197031576672
H            1.67126445449660        4.54407944354956        0.06389657389754
H           -2.01139033709555        1.25673977573053        0.14971974858726
