26
 energy: -42.428892370399 gnorm: 0.000759903863 xtb: 6.6.1 (8d0f1dd)
N           -3.50594735461122       -2.19410949622221        0.05798644175238
C           -2.80590610927513       -1.02552325474675        0.02263216435546
C           -3.55128977287249        0.16262114587754       -0.03792394332017
C           -3.05413243672669        1.45414141485565       -0.12458143773789
N           -1.84409225454724        1.94420453654215       -0.08510617201863
C           -0.66464336457080        1.30842837780293       -0.01386012397801
C            0.42586408682753        2.18726427443669        0.07336526934548
C            1.74430743905870        1.77256895882910        0.08547562076589
C            2.00770460885528        0.42155002981369        0.00161983153078
C            3.18858700969634       -0.36914340276251       -0.03588192349823
N            4.47128116626320        0.06084593820365        0.05713354457767
N            2.89523460983898       -1.67843311393930       -0.12330886792075
C            1.56297787446699       -1.78062639692923       -0.13997157312398
C            0.92463537383294       -0.53011999072196       -0.06701602615847
C           -0.42587117607038       -0.13417688680354       -0.04553172174245
C           -1.41310299243085       -1.12255157138035       -0.01071214735868
H           -4.49763143372747       -2.17402485378546        0.21442170897468
H           -3.02322572187424       -3.05926216844281        0.22346012055283
H           -4.62865111067555        0.05618795850844       -0.03344940721893
H           -3.80624843691420        2.23671814244668       -0.21803004459525
H            0.18545280616629        3.23805872240974        0.11601779981564
H            2.54153344889223        2.50111007041547        0.14919149372815
H            4.66942245635274        1.02524312843729       -0.14482625999109
H            5.18513472648971       -0.61641059555396       -0.15158968662684
H            1.12008469717651       -2.75746822673342       -0.21820804549907
H           -1.03270128892114       -2.13696049305750        0.01340596058949
