32
 energy: -58.371146835821 gnorm: 0.000930829195 xtb: 6.6.1 (8d0f1dd)
N           -3.78366700323657       -2.72989367735065        0.68852010537869
C           -3.16203581792284       -1.79058110449129        0.45134066052965
C           -2.43283011392647       -0.62086520739059        0.15837105080776
C           -3.18694660574030        0.41404628704718       -0.45666265849387
N           -4.43347795527902        0.10273050223651       -0.87735262281213
C           -2.78016236382228        1.74428390329164       -0.58462750329543
C           -1.57954201069356        2.32301799103743       -0.23154233064670
C           -0.35406782276733        1.75893471793561        0.11111323146687
C            0.75981299489213        2.66085320601350        0.26807307570277
N            0.55264466622741        4.01215942626616        0.40419080435758
N            2.02413110237423        2.30575455458708        0.20818027301651
C            2.29959959223483        1.02436587600697        0.00844067859425
N            3.51997185988297        0.52600778591960       -0.15191034545978
C            3.36538601104111       -0.80534134976417       -0.27071894185581
N            4.43015276267036       -1.61684503036624       -0.43322430210452
C            2.01387386472797       -1.22157557338267       -0.14463264310016
C            1.59722510775469       -2.53155381148036       -0.30979846924928
N            1.28336938985762       -3.63491854129293       -0.44386782372540
C            1.27088980417040       -0.02143930355920        0.03172871421940
C           -0.06350752976112        0.34029847551631        0.17163755594488
C           -1.06367520117630       -0.65319862311542        0.48234202712778
N           -0.63595279043300       -1.71779226067537        1.17764726024385
H           -5.02736436746531        0.81333639540515       -1.26495868830567
H           -4.79604669333074       -0.82846359782818       -0.76450591883069
H           -3.53137494912272        2.41401735696711       -0.98464122208190
H           -1.56295130994705        3.39900962057097       -0.34717728557213
H           -0.22325593062781        4.32636167225137        0.96251164918624
H            1.41553865936918        4.51478081394076        0.54756980157137
H            4.27848227384886       -2.57318198516485       -0.70340601104899
H            5.30829738985482       -1.18125776112353       -0.65361549203417
H           -1.23497705519478       -2.51701562330235        1.31042519119680
H            0.34564156586522       -1.83244053544142        1.36826320009754
