28
 energy: -45.886163303210 gnorm: 0.000633012131 xtb: 6.6.1 (8d0f1dd)
N           -4.17116993883229        1.56268050569284       -0.02125194425398
C           -3.00697191554686        0.85233375272622       -0.02168353817201
C           -1.81227853372971        1.59599444524923        0.02941474389658
C           -0.49119122459255        1.15796817274099        0.04664235033020
C            0.52219786362529        2.14090215239433        0.08421521876666
C            1.86362282144428        1.84373726746694        0.07190300825266
C            2.25942060577911        0.51344020666902        0.01852485136660
C            3.52425508422988       -0.11671760552229       -0.00440967698579
N            4.73838023817998        0.50440027078854       -0.04000270094017
C            3.31174022911791       -1.51416005974572       -0.05196309067483
C            1.95903130664978       -1.76397183570592       -0.05354164552106
C            1.26590387013758       -0.52361871829136       -0.01000724429540
C           -0.09978749124901       -0.25608540979747        0.01258512145701
N           -0.91288209835313       -1.31790618874700        0.01895712453114
C           -2.22431490209311       -1.37555335292905        0.01896218201341
N           -2.71084660228368       -2.64366132556628        0.02165328270818
N           -3.19697160395782       -0.45490671253777       -0.02536737407432
H           -5.01615235095663        1.04406309919100       -0.18522067734958
H           -4.16379915122824        2.54626150161133       -0.22118685781029
H           -1.95140975372173        2.67224062118071        0.04460600090064
H            0.21041584458638        3.17622911547211        0.12000917437108
H            2.59105146870441        2.64507621151257        0.09802352162235
H            5.55086502651146       -0.04828073574294        0.17629228053741
H            4.77585953259375        1.47319679491345        0.22837572485688
H            4.09711885692305       -2.24859746902253       -0.07997096065819
H            1.48496051909091       -2.72629176857820       -0.08208120743844
H           -3.69604648768134       -2.78282296259710        0.15041998865083
H           -2.06340912994766       -3.39718423362568        0.16258318571249
