29
 energy: -50.398891268391 gnorm: 0.000665316926 xtb: 6.6.1 (8d0f1dd)
N           -0.47001454596487       -4.39897837993691        0.43018906549919
C           -0.21178802410719       -3.28806798354044        0.29218458314812
C            0.17430792397820       -1.94133495108965        0.15737634652773
C            1.53110663593677       -1.62165316597526        0.25542394917504
C            1.90870389256503       -0.31631503999623        0.06067728749368
C            3.15929332359950        0.36908786368665        0.02927378277088
N            4.38582513732277       -0.17941324362119        0.13841775402946
N            2.99781447405061        1.67993564114795       -0.19366799616155
C            1.67326071698861        1.90546711860656       -0.29124989941938
N            1.21702896352560        3.16643348527906       -0.52152012247084
C            0.91455954940162        0.71668990163805       -0.12329781704483
C           -0.45463002757170        0.44325995881674       -0.07326372781780
C           -1.38052324789928        1.47183770642407        0.17870349614145
C           -2.77055534261805        1.44188200570682        0.24067472405787
N           -3.40079993113129        2.60099895818904        0.60186013887496
C           -3.59922634162246        0.37851591893504       -0.17432231898454
C           -3.16788554312906       -0.85868252351576       -0.60774227550477
N           -2.00669411948280       -1.44894543951560       -0.46798057400452
C           -0.82550294634925       -0.96788386192786       -0.11311958340299
H            2.24841547188055       -2.40959542263020        0.44008591683086
H            5.16830034679845        0.44491047984091        0.22614999778042
H            4.47757703032515       -1.12242005065791        0.47017461228680
H            1.93687996571533        3.81635099098311       -0.79954160759980
H            0.33764387699010        3.24971067317810       -1.00789195437226
H           -0.93287766952006        2.41308714509108        0.47579163967977
H           -4.37961554336156        2.56530244906128        0.82734340169071
H           -2.86219248797531        3.33102829798944        1.03503470736706
H           -4.66273560807017        0.57540758233468       -0.20091409395266
H           -3.90997904017498       -1.50805332540205       -1.06628165071745
