32
 energy: -59.951902692493 gnorm: 0.000778818768 xtb: 6.6.1 (8d0f1dd)
N            4.35611538228725        3.22570210164764        1.30141418961625
C            3.69224852696751        2.37239905270551        0.92097587040111
C            2.86293547062748        1.32629052953964        0.44316028240741
C            3.45839208379315        0.08403624436920        0.30232606248881
C            2.87869162584800       -1.07616993780370       -0.21007761024571
C            3.78494281428165       -2.13690774467976       -0.45436110976476
N            4.50950841607953       -3.00032273903474       -0.66948352922830
C            1.51898516821744       -1.35423747486651       -0.46439651284845
N            1.23530295267473       -2.53114427329529       -1.04459300274842
C            0.38466675292889       -0.51865466941025       -0.14031124756143
C            0.44367792748637        0.93611706791269       -0.19972231964954
C            1.55436404420553        1.70270536469899        0.09961669798483
C           -0.78388161622537        1.65578610874821       -0.45333890018975
N           -0.73726794422830        2.98463277149844       -0.77736379356123
C           -2.01599093500727        1.03335992388400       -0.27213550648220
C           -3.19744136718316        1.76718247217991       -0.50462483603653
N           -4.11674245705045        2.41428246308019       -0.73635988758022
C           -2.06345599782483       -0.31674019134676        0.12428772198687
C           -3.12097676466571       -1.16211044051598        0.43866142712256
C           -4.47444958778095       -0.83439891319233        0.53489779634156
N           -5.59628008913661       -0.60140882642254        0.62519843498509
C           -2.57476310577480       -2.46343748956851        0.67955311826925
C           -1.22514038389739       -2.44076487932150        0.47028731046988
C           -0.84076115059249       -1.10541068935437        0.12495133731234
H            4.51057843693729        0.01696357060038        0.55353919253723
H            0.28139756354700       -2.76660150130503       -1.26535979287115
H            1.97576242224422       -3.16430128575754       -1.30203112893276
H            1.37770750818163        2.76876961637250        0.18184844143540
H            0.05068232634254        3.34248855058399       -1.28827348920746
H           -1.62203994951768        3.42899982487660       -0.96746368136502
H           -3.15951959972700       -3.31286945021830        0.98140588978806
H           -0.55990548283979       -3.26689906770605        0.64346044162546
