31
 energy: -53.859784058851 gnorm: 0.000766141185 xtb: 6.6.1 (8d0f1dd)
N           -5.21075160382505       -0.99347768606624       -0.22864889816715
C           -4.14139312234704       -0.57247829886338       -0.14775730946683
C           -2.88592339018180        0.01284119084348       -0.06896750661252
C           -2.64259187772888        1.41899300634322       -0.05507420718830
N           -3.60433428873125        2.37721556498699       -0.04026412773323
N           -1.34612445879167        1.71691021234656        0.00762101121996
C           -0.67281689633290        0.52452915700772        0.03073103578521
C           -1.61352158374157       -0.57024895666011       -0.00605501443113
N           -1.24357961584149       -1.84623655282945        0.08169944747426
C            0.04364168111240       -2.09805870450178        0.12717915554928
N            0.34975876856847       -3.44502397648026        0.21030943888283
C            1.09005943453127       -1.10836195437377        0.03829659549360
C            2.38939869108866       -1.60259167472811       -0.14062277126538
C            3.61220930504642       -0.98634006676212       -0.19919076745597
C            3.91562427626849        0.37815017292927       -0.04542649383825
N            5.23564946680821        0.71015549427062       -0.03271862221140
C            2.99789797522599        1.41054428971358        0.10791052019571
C            1.60222043173553        1.41276856680387        0.11404502046992
N            1.00824492546972        2.60532631921473        0.19915717314077
C            0.69666814599335        0.27971806545444        0.05944061629390
H           -4.53353316875238        2.10042385328189       -0.30851145327067
H           -3.32269471528525        3.31945790050087       -0.24915652371849
H           -0.49050884529931       -3.99520246361051        0.32226756486764
H            1.09188678109489       -3.71379159678988        0.83618049047331
H            2.43523890330536       -2.67390925775808       -0.28760172400733
H            4.46628574940442       -1.63151664225651       -0.36584587025556
H            5.92441605727766        0.02018837810612       -0.27287155653860
H            5.51239169334191        1.67512811688162       -0.05092864531227
H            3.44103322159650        2.39850142025911        0.19682519430022
H            1.56319348060528        3.44287873218985        0.23749999832833
H           -0.03070385851591        2.62153751104640        0.15996194399811
