28
 energy: -49.899395513669 gnorm: 0.000744604655 xtb: 6.6.1 (8d0f1dd)
N            4.56075046462964        0.44775194843208        0.14044626718646
C            3.26336155438473        0.08124594720328        0.01674024198909
N            2.90809776511063       -1.21496226808625       -0.05666565815068
C            1.57638111468722       -1.16823109572260       -0.09723993625819
N            0.71314331469603       -2.16517202185755       -0.22368361497970
C           -0.56886035716508       -1.86889717917126       -0.17825311846933
N           -1.39181653587336       -3.00150178887795       -0.31957005039492
C           -1.12558754164506       -0.56377545694969       -0.00683201971168
C           -2.51687431602943       -0.40655845839780        0.28886167643525
N           -3.19156690149544       -1.46268568641409        0.78360672310376
C           -3.28985551228461        0.74270023584366        0.04408769638654
C           -2.87378325942254        1.99118227991190       -0.36298266495511
N           -1.68459715525265        2.54570182965725       -0.33135632091305
C           -0.53662847450322        1.95658689090870       -0.01718937958426
N            0.46597849466031        2.79084917018844        0.23905064902755
C           -0.20100748251949        0.54481453146418       -0.03243987454252
C            1.14694501595103        0.21561239339582       -0.03610657651106
N            2.26622613334476        0.98232412882735        0.02788848522348
H            5.23583099618985       -0.26411602756895       -0.07795578965706
H            4.79235806172905        1.40053390708750       -0.08025329442961
H           -2.10840220913893       -2.90252814694286       -1.02820726308566
H           -0.79656792335195       -3.80026273381641       -0.50934927056007
H           -4.15785799415376       -1.36103376862356        1.03803839110011
H           -2.70210740690249       -2.32733579674259        0.96257546888731
H           -4.36006776660860        0.60524527575988        0.14541482324666
H           -3.64716480555416        2.68372228479235       -0.68553721465180
H            1.42114048977309        2.38891171529601        0.26975642734814
H            0.28405177334427        3.77765860950301        0.15893803032035
