33
 energy: -62.903796738639 gnorm: 0.000896990008 xtb: 6.6.1 (8d0f1dd)
N           -5.82974074509665       -1.01253734578296        0.48309330578971
C           -4.72001659584064       -0.73673196001611        0.35306434998188
C           -3.38083136455219       -0.38366002927279        0.20050377345244
C           -2.88090878710282        0.94321561314417        0.24184639854147
N           -3.64991571363375        2.05086371358266        0.40337503621320
C           -1.47857099797163        0.89552946944594        0.04391841317164
C           -0.51682120910898        1.87385114880794       -0.18902918318678
N           -0.81889469611014        3.20000493210247       -0.26156550221193
C            0.83378039679299        1.44223369334426       -0.30459968898334
C            1.76036903875867        2.45100680124647       -0.62681538340609
N            2.38005835072706        3.34735797046226       -0.99702031904259
C            1.23462350447030        0.09330553830929       -0.20191636111960
C            2.59646530328775       -0.20885821768747        0.04704523991931
C            3.45453814325671        0.82864803304910        0.45602363301046
N            4.23241252130605        1.56489829851591        0.88091173798135
C            3.19368389680069       -1.50474185664137        0.12337553202818
N            4.43564214461554       -1.60588621465815        0.63028197175500
N            2.70846842767497       -2.66413364389463       -0.30870092218835
C            1.46864321962730       -2.90054085825859       -0.67287172270957
N            0.35489123529647       -2.24223595945344       -0.52618480186546
C            0.19673231127827       -0.93007612891952       -0.23861809575079
C           -1.10321218875134       -0.48755433391820       -0.06025077044378
C           -2.30069146028320       -1.27039858283339        0.00593015144846
N           -2.31115529842442       -2.59900730429389       -0.08620314708795
H           -3.22465805903550        2.86725672192855        0.81201667946757
H           -4.61463048113865        1.88994442187440        0.65190753342844
H           -0.07923793197831        3.81625846080570       -0.56567896841765
H           -1.74958704749678        3.45194416378744       -0.54894123006315
H            4.86520694851735       -2.51462131946212        0.62739108680181
H            4.95532647587259       -0.79408349384538        0.91794475892140
H            1.33579900905375       -3.89152790213023       -1.10622782480508
H           -1.41158765582708       -3.01424063876487       -0.31823762960517
H           -3.17463498618343       -3.11278528347591       -0.12900279982382
