26
 energy: -48.025885961133 gnorm: 0.000667777083 xtb: 6.6.1 (8d0f1dd)
N            4.28153147138863        1.48859176900214        0.64019917879757
C            3.16136493503703        1.32667595662160        0.45143868338757
C            1.77726854421508        1.14793468270564        0.25076112259527
C            0.90940671547374        2.23106837887879        0.36270721825477
C           -0.42298181625127        2.04141584249146        0.06171966512496
C           -1.51995293040880        2.91982974008653       -0.03874892685935
N           -2.63473168630679        2.28737786356858       -0.36906731953058
C           -2.35353365156785        0.96673620956047       -0.45917923746829
N           -3.30853758078792        0.14581169332719       -0.91441376745497
C           -0.96390420245149        0.71546832835813       -0.18145401980238
C           -0.13529109148410       -0.39588611147148       -0.10731527207145
C           -0.56942118363233       -1.71745030044064        0.21868910303541
C           -1.86829511520898       -1.82825058803282        0.74731965001043
N           -2.93782551706786       -1.95066460812914        1.15466856454921
C            0.14201968862574       -2.92443660317272        0.24532151225317
C            1.38959812615188       -3.20584241018315       -0.27204591249438
C            2.21325792329555       -2.24228582646257       -0.86673001812809
N            2.18534332931662       -0.96528440520344       -0.65798776384224
C            1.30808494269043       -0.13218689345962       -0.14140050253353
H            1.29492534504507        3.20802373740447        0.61467993300099
H           -1.51808755014782        3.98351502512760        0.11364198648807
H           -4.21549865855023        0.57481750988172       -1.01915685745836
H           -3.28350046839556       -0.84391009055944       -0.72767225139966
H           -0.41205618285922       -3.76138701115214        0.65665010426189
H            1.72425896440689       -4.23266750854496       -0.27106914660753
H            3.02505204977279       -2.56922444970197       -1.50853174360900
