30
 energy: -54.938792797395 gnorm: 0.000574407867 xtb: 6.6.1 (8d0f1dd)
N            4.80978633870398        0.03676470394851        0.05226808399684
C            3.68417864130347        0.27594325497113        0.03247905258962
C            2.34946886482015        0.66291069788145        0.01777804184344
C            1.90344976805291        2.02611245967852       -0.00692644309888
N            2.71390383897635        3.10144658940696       -0.07156558284742
N            0.57773888713726        2.12276974381237       -0.01488955163829
C            0.08841993787671        0.84379795887466        0.00772832039566
C            1.17957919156707       -0.09839031150295        0.02478340810906
C            0.90519727471309       -1.47395341477780        0.06468792751847
C            1.94851511590266       -2.41283389477229        0.17140173087110
N            2.76167368008539       -3.21724439113080        0.27985020933686
C           -0.42029149695573       -1.91258754883185        0.01965242335003
N           -0.65608522919988       -3.26858437986666        0.02568089932652
C           -1.51299554691597       -0.98520746419851       -0.06461264052035
C           -2.77664730873826       -1.52719063337348       -0.34043977815221
C           -4.03857864583861       -0.97802372660065       -0.22442448302272
C           -4.33307738282667        0.29354028658264        0.26364931893213
N           -3.56323196694978        1.34191711239049        0.34995978695754
C           -2.26963509956039        1.45929583574085        0.04943452572826
N           -1.87247480406418        2.70902240340983       -0.14207625931041
C           -1.23862135313653        0.43539336068422        0.01771234509147
H            3.70012508243914        2.97166360408601        0.06950441049474
H            2.32049090603118        4.01716510444400        0.04847155094858
H           -1.49746903416975       -3.61092991016810        0.45659254652835
H            0.15876106579588       -3.84305527750912        0.18334474364208
H           -2.76854887630898       -2.56355874920106       -0.65451263518639
H           -4.87858599269159       -1.62556137027964       -0.43440808507014
H           -5.35572297366859        0.48653190610028        0.57602826596315
H           -0.84393665750477        2.87248648479866       -0.18259908921552
H           -2.55973448287706        3.43911522090174       -0.04854599675913
