31
 energy: -58.657346111510 gnorm: 0.000905468407 xtb: 6.6.1 (8d0f1dd)
N           -2.17405163403940       -3.80213997431194       -0.03813621404238
C           -1.94687040578894       -2.67461597168332       -0.02339334110243
C           -1.76749058312373       -1.27748038646712        0.00808909240385
C           -2.92778485620695       -0.50939263308466        0.29487799813931
N           -4.01167373652261       -1.16034318665531        0.76740690602976
N           -3.12118473523475        0.77907380790358        0.09219004477739
C           -2.24180591622236        1.71081780287013       -0.23375666435359
N           -2.82108993400853        2.86636377958360       -0.62468456542314
C           -0.81914226015150        1.67263850658620       -0.14147971175155
C           -0.22069355916441        2.93680812859168       -0.28534257023522
N            0.16430021029477        4.01071923926089       -0.44483873565648
C            0.01831522927325        0.54352102455767       -0.00930950053108
C           -0.43770300705896       -0.84069678250059       -0.16569848130617
N            0.40370832665407       -1.83555060046675       -0.43294725406411
C            1.72300710553385       -1.68347468647305       -0.39470233829760
N            2.46131188618593       -2.76831152790206       -0.73332177119873
C            2.27158248626583       -0.47929268825320        0.05258305699887
C            3.55657932595902       -0.00577975704626        0.37612636957614
N            4.73469434222348       -0.68715303232178        0.37485609739236
N            3.52345143628095        1.31171323191736        0.69363202028848
C            2.26832122024641        1.71367834136762        0.58293451330250
C            1.39922127264198        0.65867947559680        0.19866346360455
H           -4.86546363617622       -0.64281989530918        0.87754382322274
H           -4.01280520422274       -2.16298702943155        0.84285088697047
H           -2.27368312708736        3.69021849208951       -0.80403329390969
H           -3.82397925902579        2.91827016226524       -0.60132140368480
H            3.41686966431284       -2.63680960765063       -1.01569202915667
H            1.94786273257566       -3.53324184817206       -1.14133872748317
H            5.50147001101473       -0.17502442559337        0.78420829451155
H            4.70346510799541       -1.67156397695991        0.58806593232891
H            2.01338714307549        2.72882909819037        0.81691655314825
