22
 energy: -39.539564859972 gnorm: 0.000568621126 xtb: 6.6.1 (8d0f1dd)
N           -4.10729837879270        0.54944381852191        0.15634356601573
C           -2.91817009756378       -0.07081437888278        0.14900272019425
N           -2.82317768132492       -1.39919431726608        0.35561192645047
C           -1.53263378799880       -1.72314864749052        0.29354832929334
C           -0.71437026937925       -0.60425788735456        0.05696694054711
C           -1.63166405334237        0.51323882188511       -0.05380143457155
C           -1.14007692754546        1.74202609946027       -0.42829592027491
N            0.16262987439508        1.98159414253255       -0.48109231946448
C            1.04273184781770        1.00645337433562       -0.27079002991008
C            2.34513169358658        1.40748004384525        0.09227755751349
C            3.39098659821375        0.58581631107871        0.48750072214975
N            3.61656949766673       -0.67907684929584        0.19724186929321
C            2.75438778765848       -1.46052248591881       -0.43081606606637
N            1.45683103276516       -1.43253227665603       -0.42136553275542
C            0.64555256801543       -0.40882969748173       -0.18012377228565
H           -4.93452196406343       -0.00943037903822        0.26804568385619
H           -4.18154126411024        1.52894620482731       -0.04633398538535
H           -1.21975650674138       -2.74285778639357        0.41687497190234
H           -1.77637488848878        2.58590380226518       -0.66747700347156
H            2.45398893305134        2.47291055169688        0.24891311024067
H            4.20227237277285        1.04849309760892        1.04266019044854
H            3.19364192760835       -2.33467848147907       -0.90441125931983
