34
 energy: -62.604733848662 gnorm: 0.000946033564 xtb: 6.6.1 (8d0f1dd)
N            1.53086260384569        4.33739049855567        0.53413355881407
C            1.43496867437327        3.20413238068001        0.37281199809731
C            1.36817132594839        1.80468527374407        0.18595334646781
C            0.09836858587532        1.27616247248389        0.03421661009491
C           -0.36889086313352       -0.04154654094161        0.00749118680367
C            0.44354039046781       -1.25042535370424        0.04280907019638
C           -0.24149899609465       -2.46939132437225        0.31610094372430
N            0.44720577054450       -3.66237603562098        0.57238429344304
N           -1.55207110226223       -2.62053108768975        0.34821887972698
C           -2.32152656827043       -1.56834992938369        0.12186300196723
C           -3.70951193205609       -1.49598057348450        0.05322520604761
C           -4.05303123816505       -0.15432551465268       -0.10782850294377
N           -5.29688968334821        0.36271812622932       -0.19228366713893
C           -2.85812600867934        0.64504427300188       -0.14240933317315
C           -2.90145887721774        2.02271116283740       -0.31244076071588
N           -3.01346142695581        3.16072441989080       -0.46544078529825
C           -1.76429000072291       -0.22124871827538       -0.01683385747625
C            1.82323081947842       -1.27892872365760       -0.30762977996240
N            2.31262644449306       -2.43247249912301       -0.80091879414804
C            2.78077075974054       -0.23079882918521       -0.18494553944085
C            4.11888069024925       -0.62224650484949       -0.39086463959030
N            5.21596599796485       -0.93259085549877       -0.55268279328398
C            2.61834106632066        1.12832473938997        0.14301398619814
N            3.72496301865770        1.86568079426590        0.36936328615537
H           -0.68609727234047        2.02391943849195        0.01542297667113
H           -0.21432039670987       -4.37340489640537        0.85958039321502
H            1.21954293485160       -3.58037023781661        1.22036195150637
H           -4.39048012538819       -2.32098228162115        0.12103124941898
H           -6.08791168824124       -0.24835356903511       -0.28418766158101
H           -5.41277348524420        1.34022047902279       -0.39677331132017
H            1.70777022130451       -3.23753666398578       -0.87312778327240
H            3.28366026207959       -2.50820757004499       -1.05386685788103
H            4.64034323607596        1.45934440798439        0.27184990179988
H            3.64319771986124        2.85818728726975        0.51704173778042
