29
 energy: -55.215514016770 gnorm: 0.000529484445 xtb: 6.6.1 (8d0f1dd)
N            5.44407770214653        1.92835834155896       -0.01364596165704
C            4.40523269481264        1.43313306354405       -0.01325525976500
C            3.15113378412547        0.80225988535928       -0.01065581600682
C            2.02501187930842        1.62642730873942       -0.01613109746865
N            0.74701875090619        1.35551587482231       -0.01803035175490
C            0.16842989423883        0.13585640262462       -0.01072623687946
C            0.80778363306933       -1.20149746213229        0.00261584827376
N            2.11489917497267       -1.45551553305862        0.00280104871516
C            3.13941885666806       -0.63542806856234       -0.00436312950505
N            4.33198086610844       -1.25928941417066       -0.00475205057058
N            0.08257049775063       -2.30807297730886        0.01400498443773
C           -1.25296067064055       -2.30835850549574        0.01180980924416
N           -1.83298700073056       -3.52085215025754        0.02506222804564
C           -1.97918536096308       -1.10763074797548       -0.00419438614825
C           -3.33527273478138       -0.76553157926228       -0.01043656843641
C           -3.44782426733106        0.63426601014835       -0.02442157714192
C           -4.63073747257534        1.37562169636506       -0.03319667145312
N           -5.58670747948064        2.01496622897458       -0.04283554251011
C           -2.14615186915315        1.19758408659768       -0.02735183266178
N           -1.77994917180082        2.47833277229586       -0.03899666526944
C           -1.21688895303956        0.10891333549223       -0.01480698290387
H            2.22958119424943        2.69606917023405       -0.02091290379376
H            5.19603487280227       -0.74474049833348       -0.00861330619917
H            4.32997819602491       -2.26452766363765        0.00071734049799
H           -2.83087929535303       -3.62130449273777        0.02585919336628
H           -1.23597843944587       -4.32893416054064        0.03725599381087
H           -4.17138194884551       -1.44146185117217       -0.00517520097566
H           -0.77820935452518        2.64259859327810       -0.03637256901268
H           -2.45763905881815        3.22109482711336       -0.04557517147712
