32
 energy: -59.172073528333 gnorm: 0.000805370316 xtb: 6.6.1 (8d0f1dd)
N           -5.03964050137020       -0.22483020534404        0.12887231017601
C           -3.92876791154044       -0.51764067947474        0.09491791567405
C           -2.58911454394074       -0.91082678009739        0.04569925445125
C           -2.13081090060432       -2.23249567511872        0.10891423728705
C           -0.73488568609062       -2.24800886879455        0.03183129225064
C            0.03183133324236       -3.39976924587813        0.17754377318693
N            0.67040037743750       -4.35251627293709        0.29681189866567
C           -0.28118013360523       -0.89493678142587       -0.08269292301839
C           -1.45983587747398       -0.06947901263229       -0.03397789823260
C           -1.34049156208319        1.32550136008946       -0.00839028977328
C           -2.47599300480889        2.15960414772242        0.04697922701280
N           -3.34654899980509        2.90619998997577        0.10201933534263
C           -0.07231683608251        1.91268643273379        0.01763898411581
N            0.03853521779487        3.30528283006380        0.07758996278798
C            1.08840163623990        1.10580997488236       -0.06631292169053
C            2.39486535309753        1.73160366759501       -0.12832367809076
N            2.55605480676474        2.85839311965523       -0.83561076178652
N            3.42722569141736        1.32483749955642        0.56992672503550
C            3.77468395632462        0.11769569810904        0.93460001376405
C            3.34356643212149       -1.04937991776108        0.32753053356429
C            2.14583997583804       -1.17072370582191       -0.37964997393729
N            1.99672596360474       -2.18877407959326       -1.23474773187918
C            0.99040231597132       -0.31115002974944       -0.15492994634631
H           -2.75321495669027       -3.10261796342850        0.21273065385206
H            0.74650963503146        3.64785772986090        0.71302459517665
H           -0.85449368527823        3.75521344959212        0.23891413121217
H            1.76081668919727        3.30468173832206       -1.26359708902518
H            3.45448134961728        3.31094432516126       -0.83136846278397
H            4.58569582955796        0.08229873810193        1.65201770198561
H            3.97303201379437       -1.92595445576186        0.38976272986608
H            1.09342274954461       -2.38064666209244       -1.63815255206112
H            2.66763892227638       -2.94050394631049       -1.24556751138188
