32
 energy: -58.365927909996 gnorm: 0.000483697161 xtb: 6.6.1 (8d0f1dd)
N           -4.66907219510115        2.31760635105996       -0.58795044260058
C           -3.74573151676355        1.63951380005508       -0.47128512201478
C           -2.64016971255956        0.80856095962262       -0.31158183204012
C           -2.69584591166315       -0.54796518888512        0.09548001162418
N           -3.84846019979091       -1.21960782476822        0.38451456653976
C           -1.38149756595565       -1.04720099591187        0.10047334138677
C           -0.83354442656746       -2.30459778415040        0.37294818989436
N           -1.57607894442700       -3.37069514245053        0.79669995143053
N            0.46153269637295       -2.54541341326465        0.19319718751492
C            1.29238872296666       -1.58604581934499       -0.19198862539178
N            2.41176006764241       -2.00475281348319       -0.74189094673812
C            3.52667307354516       -1.38559865791227       -1.02036917970892
C            4.01887449979633       -0.19906768078871       -0.51061352631620
C            3.26538087974909        0.79232209326043        0.13485463787461
N            3.94813372452295        1.86405703976232        0.61653926394510
C            1.84960084610117        0.83880933707931        0.19507039563875
C            1.32644409708341        1.98988273312465        0.80127407180040
N            0.92945438820708        2.94954728074028        1.30381274598400
C            0.89543412228576       -0.16365314090676       -0.13919330483499
C           -0.47783579189231        0.05104940697602       -0.20127682115953
C           -1.29327733210126        1.19095757874230       -0.48695187858165
N           -0.92595337371107        2.37993476727898       -1.01276035970122
H           -4.67503351398355       -0.64350938186972        0.45016519708528
H           -3.79254118880736       -1.95529005440346        1.07078653557328
H           -2.52256223064809       -3.44087808070239        0.46062652662930
H           -1.05444017845388       -4.23496576825400        0.80592909214321
H            4.18129920084015       -1.95791908053615       -1.67200658725072
H            5.07151061033507        0.01028407339485       -0.64833469239115
H            4.95109051295723        1.84139389488050        0.64257944877796
H            3.46860365182933        2.59598749112990        1.11170889841553
H           -1.64010870044190        3.08882057413643       -1.07069619668011
H            0.01847636992766        2.70749369108496       -0.90462882524730
