28
 energy: -46.676767319154 gnorm: 0.000540241859 xtb: 6.6.1 (8d0f1dd)
N           -0.64770571586516        4.42233896184359        0.21634477012173
C           -0.28112927692471        3.33381485308717        0.17147762328479
C            0.22854875026998        2.02187508369218        0.12712096093557
C            1.61936546213433        1.87798757964136        0.25514039245229
C            2.16985208329771        0.62935273069006        0.14800493806491
C            3.51760146275833        0.18385025643344        0.15820771887977
C            3.52062638679903       -1.17013869571885       -0.06113806635512
C            2.18570186871211       -1.63034690764059       -0.20433857324757
N            1.85533473863257       -2.93602442417172       -0.47199769347153
C            1.32039769940420       -0.52880772700229       -0.04086531617009
C           -0.08401317972207       -0.42251642464954       -0.00645650157702
C           -0.85178835552126       -1.57602312377433        0.16687355997401
C           -2.24281261288236       -1.76660650747309        0.16174318581961
N           -2.69906093375548       -3.01050369422228        0.47474594485445
N           -3.21576592405458       -0.94184341866833       -0.21447563430033
C           -3.07438683655978        0.34548049814511       -0.45574802924995
C           -2.00022052898115        1.19946991713873       -0.29601789118569
C           -0.64243249413339        0.92345882255542       -0.04070030186392
H            2.23141765322915        2.75723393302084        0.39839369412053
H            4.37631751323499        0.81367771613633        0.29709793744925
H            4.38704105629087       -1.80312244607631       -0.13583429737022
H            1.01573897045507       -3.08062001252528       -1.01395568717555
H            2.63255518045435       -3.51145786247536       -0.76228659927053
H           -0.28924883748447       -2.46693619981612        0.41283871806350
H           -3.69554800115906       -3.11887056311073        0.55115288705538
H           -2.10355153115010       -3.67341632858500        0.93665828392611
H           -4.00673159084103        0.80473163291775       -0.77319031979726
H           -2.23149772994021        2.25076515220771       -0.42276749166622
