30
 energy: -54.942874728635 gnorm: 0.000574288702 xtb: 6.6.1 (8d0f1dd)
N            5.46893641450935       -1.87038925446425       -0.00556064405796
C            4.47580678739966       -1.29190393660973       -0.00330144113005
C            3.26537617779390       -0.56531493793849       -0.00100635752659
C            2.11222158455972       -1.32609985808877       -0.00466952856721
C            0.75772979807941       -0.97802629472794       -0.00181758057994
C           -0.14035528484579       -2.08707582463383       -0.00825701623728
N           -1.44024418535881       -2.04007239881891       -0.00782157942178
C           -1.98535557345917       -0.82171963434849        0.00160176529137
C           -3.32310234323183       -0.41368313891960        0.00592397995502
C           -4.49781616888872       -1.15619325314755        0.01320082185928
N           -5.51081375534083       -1.70232792176589        0.02952727339088
C           -3.27219484681118        1.01464170482331        0.02128109074727
N           -4.34584263683697        1.83083374748693       -0.01402284227567
N           -2.02211288616564        1.48308297778890        0.02749515783014
C           -1.19830684057039        0.39692874918506        0.01255523594146
C            0.19388950459738        0.34698851465276        0.00804552372838
C            0.94229446840569        1.58805329094784        0.00903588894082
N            0.20322648398689        2.69687273316438        0.01520173416755
C            2.33072452028038        1.75895045068676        0.00380803332651
C            3.38426861911155        0.85822119682506        0.00211212065130
N            4.64001888892125        1.36071919144267        0.00521814065074
H            2.29509659808217       -2.39616364288431       -0.01041823408957
H            0.27945872358775       -3.08546423084209       -0.01469050788663
H           -5.25629075230114        1.43234383768843        0.13543664573340
H           -4.21330746382145        2.81193238430045        0.15498883078184
H            0.64410124209721        3.60073281340894        0.00995916276324
H           -0.82835853142102        2.57756822803256        0.01593213178140
H            2.64138280368441        2.80009912405095        0.00388034994203
H            5.43510474768044        0.74482150813750       -0.00444559807280
H            4.79437319527565        2.35268189226738       -0.00274859003711
