35
 energy: -67.136312480465 gnorm: 0.000729962637 xtb: 6.6.1 (8d0f1dd)
N           -5.74374374320265        1.98347667697455       -1.12290431325524
C           -4.75132436153188        1.48780056483787       -0.82138488959502
C           -3.58032338760545        0.81267193474447       -0.46747165686767
C           -2.30425274657121        1.34075496166192       -0.34071045714691
C           -1.41233383979410        0.28664816939933       -0.02329489100820
C           -2.19750953607711       -0.92234104423149        0.05481169762232
C           -1.53992373322436       -2.10657179153088        0.41960190334717
N           -2.18216740159160       -3.26186637062058        0.71565825699201
N           -0.21573625174937       -2.15890879313972        0.41452292134320
C            0.54400014085765       -1.08694185936948        0.19148881830970
C            1.89681160509067       -1.42461848766341       -0.01072521034209
C            2.12558796069132       -2.82115897435218       -0.00209944860982
N            2.38505406869006       -3.94087868419838        0.00216561869773
C            3.02494125873678       -0.62310342509397       -0.29832083511568
N            4.14557119931542       -1.26850981815755       -0.69088126511989
C            3.09752085264550        0.78006556803671       -0.17306472962333
C            4.36003610925157        1.34374712793968       -0.44066247919283
N            5.39304817831182        1.79860025163132       -0.66680394327766
C            2.10224188946205        1.69482577806187        0.25919785236515
N            2.52939330001046        2.95064245032812        0.52671326064841
C            0.71774360445699        1.44299523988911        0.38357368240851
C           -0.01721922519160        2.55673988216510        0.84254823798206
N           -0.52356834728758        3.48874798753034        1.28917434612483
C           -0.02314540541435        0.25491100553422        0.15645467246125
C           -3.53225111022864       -0.59877070048382       -0.22514104454900
N           -4.60919115693179       -1.42694796594109       -0.26000637591591
H           -2.05167101991568        2.36906189154268       -0.51036113510407
H           -1.59342010333905       -4.00735907541278        1.05292431312486
H           -3.12707041224315       -3.22278830463544        1.05609894033416
H            4.99984213295755       -0.76052192264366       -0.84532419171315
H            4.15519961487790       -2.27372219599547       -0.73224132064383
H            1.87415901424700        3.66482784157055        0.79556007689694
H            3.49934481451786        3.19163116791191        0.41582762175141
H           -5.46214862749583       -1.03308483917080       -0.62812727112350
H           -4.45220032552494       -2.40091286071940       -0.46327583760540
