30
 energy: -55.723437334779 gnorm: 0.000488553261 xtb: 6.6.1 (8d0f1dd)
N           -6.11954331823359       -0.05544732914430       -0.34165833527295
C           -4.99358005105397        0.16274410190427       -0.26680233611120
C           -3.61579469835582        0.37692260304478       -0.16679734523701
C           -2.95270676236514        1.59764510655875       -0.12853890932391
C           -1.56396096130862        1.34995699471528       -0.02127668703343
C           -0.47554092281967        2.16998488948160        0.15927266819188
C            0.79856978898500        1.59092577217103        0.23662489664340
C            1.85385639942456        2.47727406554480        0.54652856438181
N            2.62439920285969        3.24783169613591        0.90843716096789
C            1.03359597531816        0.19934409709016        0.12018035967889
C            2.36196048569926       -0.23716447035570       -0.12860077809956
C            3.26369132146161        0.71278906878321       -0.65585787862687
N            4.04847091656757        1.35575099420057       -1.19937316823764
C            2.91820953722274       -1.53748868469489       -0.00694764373936
N            4.24402707387354       -1.67527526859274       -0.21705419891669
C            2.21098177635035       -2.69905231092437        0.34904321518153
C            0.84604709390093       -2.84957880710150        0.48195570281323
N           -0.15456952312811       -2.02074321083097        0.29735221970637
C           -0.12283394116466       -0.69014213993521        0.13279506504640
C           -1.36919605092967       -0.07590705196235       -0.00739193174242
C           -2.65097254940172       -0.68004093296075       -0.07921010647982
N           -2.86800909901122       -1.99366705343099       -0.06450734841229
H           -3.41874762792771        2.56477368978296       -0.16256206245982
H           -0.57376637979329        3.24216914621481        0.24493739480211
H            4.67413627540977       -2.58011955063402       -0.14875969323051
H            4.80929898746675       -0.88376563437202       -0.47590400021311
H            2.80937636545432       -3.59057601910054        0.48303907133322
H            0.50572388440202       -3.84965039048017        0.74374537292458
H           -2.03787871907834       -2.56097207237212        0.08209628421731
H           -3.80030911312510       -2.37102845413513       -0.04177616835277
