28
 energy: -50.677277631420 gnorm: 0.000896004194 xtb: 6.6.1 (8d0f1dd)
N           -5.15383215169161        0.80057650685165        0.30741554494081
C           -4.06372643525548        0.43977068608099        0.22428063201564
C           -2.74227346602478       -0.02810345234792        0.11273906129105
C           -1.73862421542336        0.95933576934172        0.10898043291402
C           -0.37368557980984        0.85036706371185       -0.02988748764737
C            0.42629550890771        2.05355380665460       -0.11229857790996
N           -0.17009153624437        3.28769223743997       -0.17793639877191
N            1.73937386172289        2.09408310701299       -0.08576736587647
C            2.40826671434728        0.93991415655184       -0.00236332401250
C            3.75429169123153        0.65899513431263        0.06269927339143
C            3.82941170208959       -0.76007089773562        0.08748924674287
N            4.96075518362499       -1.49383878674188        0.10935875684981
N            2.62744636178004       -1.36395758535627        0.04678798502708
C            1.73072531413899       -0.36482359932571       -0.00124808601023
C            0.34302156820273       -0.42888756473386       -0.02259556826369
C           -0.23652152799923       -1.71129299451074        0.03518576805047
N           -1.45936076518011       -2.15192474486169       -0.02708849858844
C           -2.58624711763408       -1.42582492189429       -0.05652007938001
N           -3.68602539481728       -2.18163403665583       -0.22486598726054
H           -2.13724588429156        1.96064084487948        0.22438705309382
H           -1.05067173610586        3.39029770605928       -0.65202183728482
H            0.49298248871048        4.03190043739402       -0.33086350448092
H            4.58033497364306        1.34002694940168        0.08614274676786
H            5.83580283825080       -1.05004245491176        0.32207086987551
H            4.87006172145296       -2.48488269230319        0.24895187035125
H            0.50170388709844       -2.50562174704324        0.11718186210433
H           -3.56254542983046       -3.17619037874362       -0.30670802323123
H           -4.60745947879258       -1.77749289542660       -0.21526005029844
