23
 energy: -44.848290080172 gnorm: 0.000789284176 xtb: 6.6.1 (8d0f1dd)
N           -4.16097616686647        2.08859118897861       -0.22430085159914
C           -3.38780311023862        1.24830550825824       -0.13678201710123
C           -2.45791173939484        0.18251873727116       -0.03690888957257
C           -2.95920747110307       -1.07413098467151        0.37778803295011
N           -2.41075189289271       -2.22139589000549        0.12456103634742
C           -1.21223205796395       -2.55925063940653       -0.24373571457957
C           -0.01773298192499       -1.83174526477084       -0.05479052890214
C            1.19978869055722       -2.53656635082085        0.01390591761883
N            2.39415175740465       -1.99600479900268        0.09535594123897
C            2.46641969595771       -0.68147863880225        0.10394180885571
N            3.59367379010034        0.04662559072899        0.14208957053631
C            3.22366044186252        1.31471532739238        0.12053381522577
C            1.81784287846514        1.49135530151917        0.03864020984509
C            1.14193008293775        2.70891613168081        0.00160472016666
N            0.56963671816042        3.70628587002357       -0.03367815423012
C            1.28347534860095        0.18840082911481        0.02918211945961
C            0.00593801626048       -0.37573308486118       -0.04915725382147
C           -1.11359133223557        0.46341216067787       -0.23291445623308
H           -3.92397151361270       -1.11567916039400        0.87109097371420
H           -1.13201317492523       -3.57122009911259       -0.62823734927441
H            1.17911576415333       -3.61824447824016        0.01051594252482
H            3.95561484927086        2.10148356421158        0.15337038157201
H           -0.87907091797079        1.50364335093078       -0.43251803864101
