32
 energy: -52.765742175589 gnorm: 0.000570631213 xtb: 6.6.1 (8d0f1dd)
N           -4.34618023266710       -1.79499820616991       -0.28452993406021
C           -3.23152418491656       -1.00858468942732       -0.12903792109452
C           -2.00385582049054       -1.66212005478497       -0.05077516007471
C           -0.69253065453762       -1.16772320861709        0.04220598247677
C            0.33863386213268       -2.11249266384224        0.10270456639100
C            1.69292147655751       -1.79545609545092        0.12416138446646
N            2.64807414002699       -2.77906057208143        0.22677477354614
C            2.03790539788097       -0.44562873037812        0.05164870503171
C            3.25420140213268        0.26172362005454        0.00621632710943
N            4.53265876303458       -0.25132719187083        0.08806151001061
N            3.05477099152318        1.57533739216450       -0.19627308216369
C            1.72711310997106        1.76632243216419       -0.24813826770834
N            1.23554532628243        3.03271322355657       -0.45596904555747
C            1.00791040928193        0.55566665440679       -0.06195480423435
C           -0.35783256735637        0.24925245837096        0.03065336926552
C           -1.28740726612759        1.28249616646993        0.18562372159318
C           -2.68406688832452        1.26269573986664        0.22273727550561
N           -3.30958027545704        2.47212000249284        0.40149334242415
N           -3.54562778110905        0.27530899071919        0.01930319531852
H           -5.19772223930416       -1.30294083936228       -0.49479547895253
H           -4.24154802822052       -2.72048112935205       -0.66093303448211
H           -2.07730666479188       -2.74355015461934       -0.09961489501706
H            0.06463717332716       -3.15955886016339        0.12504480867659
H            3.55056644541312       -2.55468682231218       -0.16102576803292
H            2.33148749000222       -3.71831313203835        0.04088486022643
H            4.65521806348803       -0.96625765664233        0.79150468008643
H            5.22316470307360        0.48422596372041        0.15327318263215
H            0.40209009072306        3.08377471349351       -1.02423085884873
H            1.96274051738176        3.67529144865608       -0.73859430357808
H           -0.85782287238760        2.26112507132652        0.35060898286842
H           -4.29625113674038        2.42378060727717        0.59191429011564
H           -2.79527098580304        3.22200099226788        0.82978482365801
