26
 energy: -46.452008721145 gnorm: 0.000824738643 xtb: 6.6.1 (8d0f1dd)
N           -4.35299343860080       -0.79325628836106        0.04737003517501
C           -3.11922793172233       -0.24913687161215        0.00241583921654
N           -3.15170433695137        1.09837574404355       -0.03364959345786
C           -2.09534350626555        1.87363634041410       -0.05636073329053
N           -0.80091884029828        1.66416060336996       -0.04698364363502
C           -0.19527173778949        0.45446312051942       -0.02830707340192
C           -0.82136769388434       -0.87681143382265       -0.01600141289939
C           -0.00516454928308       -2.00464527645329       -0.01229066021695
C            1.39370121654308       -1.97820868518683       -0.01454053474525
N            2.10809425033725       -3.12672674605078       -0.03719038345912
C            2.00996945957581       -0.71735168546197       -0.02084193756950
C            3.32485111612677       -0.22944377180888       -0.02425892105054
N            3.38474803673295        1.10835054361692       -0.03232365725804
C            2.11420986858428        1.54733933183265       -0.03522132053146
N            1.73419286658003        2.82158563221900       -0.04232957363500
C            1.18523421521230        0.45150674215940       -0.02744666933686
N           -2.13999930655005       -1.13125830762723        0.00069678500967
H           -5.15171213453998       -0.18642327653940        0.02028152518747
H           -4.45013388614841       -1.79189853593910        0.04613302062345
H           -2.35252028482206        2.93404854425609       -0.08647458447417
H           -0.50912502905974       -2.96034527047381       -0.00431820918492
H            3.10622171257471       -3.09535352477974        0.06399473804404
H            1.63829396928745       -4.00847974062919        0.06737319671540
H            4.24143965870786       -0.79384216343110       -0.02281161067174
H            0.72874686347304        2.96578967809472       -0.05056741983597
H            2.40902780358009        3.56530635485125       -0.05347749081726
