28
 energy: -52.270926514625 gnorm: 0.000317458751 xtb: 6.6.1 (8d0f1dd)
N           -4.45628980369977        2.92607500340703       -0.00257312895837
C           -3.60877159392642        2.15275888087177       -0.00254085267023
C           -2.57315818397674        1.18399760080162       -0.00215832811113
C           -1.28771524548950        1.71085264662875       -0.00084946952339
C           -0.02549683403489        1.11395306037503       -0.00011836274858
C            1.08526415984532        1.99633975075161        0.00127858726517
N            2.34728850845737        1.64791660916362        0.00216506254860
C            2.62308699194470        0.35613809853577        0.00172158588093
C            3.87351888366410       -0.28965205145298        0.00246093773088
C            5.13041206218816        0.31877744853803        0.00389572142931
N            6.17542165949031        0.79627429667201        0.00501576488360
C            3.62640767926852       -1.67929312396138        0.00151116872744
C            2.26038594492570       -1.92039566671682        0.00021727126429
C            1.58953176124731       -0.68772977636078        0.00029378762728
C            0.24084037867612       -0.31271230673935       -0.00064861998322
C           -0.73768245150484       -1.32397272692234       -0.00202700341653
C           -2.11769760967722       -1.28344522194474       -0.00314705653654
C           -2.74523468597363       -2.55616154623950       -0.00443074865325
N           -3.26093292607816       -3.58083147653205       -0.00536746593927
C           -3.00196527535211       -0.16615025539422       -0.00323267166593
N           -4.32480257638260       -0.41369888274387       -0.00442147635692
H           -1.26516932016860        2.79642091648565       -0.00027996627657
H            0.90321790707611        3.06344027647112        0.00168138815267
H            4.39483191034237       -2.43136987175494        0.00178232256553
H            1.81517785886809       -2.89860550553789       -0.00067420401746
H           -0.32830365572084       -2.32768036687678       -0.00224665792246
H           -4.98497995739006        0.34686087155126       -0.00453997419804
H           -4.66776279321881       -1.36052513877565       -0.00520807089776
