33
 energy: -58.083549354421 gnorm: 0.000987222899 xtb: 6.6.1 (8d0f1dd)
N           -3.51123304762312        2.91991500672244        0.10644321472060
C           -2.85421830015259        1.97545136922728        0.03265235392783
C           -2.12876984328490        0.77171439357036       -0.04528906636333
C           -2.93195000512276       -0.34362720935102       -0.38522935998669
N           -4.20531497169121       -0.08843469665510       -0.79819968759726
C           -2.57300235012381       -1.68711292168143       -0.31156160888294
C           -1.37611319542663       -2.25667895218070        0.10024945251529
N           -1.37043659001674       -3.61490457127569        0.24964211140030
C           -0.14206509001091       -1.58648044754943        0.28759806841984
C            0.86773066968517       -2.38393523190837        0.83589561637846
N            1.65012656119143       -3.08257145371257        1.31952159776454
C            0.21906187992826       -0.23217720461575        0.03524017985881
C           -0.71859505238097        0.87794517481327        0.12894525294214
C           -0.21616241710075        2.15445021314434        0.38666659834615
C            1.13955436468000        2.47625010111351        0.38793629359750
N            1.55792009851771        3.72637029504488        0.69222951961240
C            2.03233150788617        1.45875082152961        0.02765420478854
C            3.40061440260386        1.43580632203901       -0.25615078609184
N            3.80568213582238        0.22769405524795       -0.64728039259072
C            2.74248381653435       -0.59284868818086       -0.59153039556241
N            2.88291270444996       -1.83344321333111       -1.10950295421370
C            1.56170073854417        0.11136489527994       -0.15297540308526
H           -4.57094639555491        0.84611318581297       -0.74177587447603
H           -4.85712697757183       -0.84652318753228       -0.88943517910548
H           -3.36818193492806       -2.39004322674331       -0.53135952054307
H           -2.24916592954897       -4.09951219377917        0.29376176735008
H           -0.57853675984464       -4.05759554836351        0.68455720532330
H           -0.91869134214484        2.95617467295972        0.56344044685576
H            2.51955587348689        3.97510134781279        0.54903665923819
H            0.88265492673090        4.46205261868053        0.80141490952393
H            4.10565568539129        2.24690878203854       -0.20949772141154
H            2.32445116052559       -2.59598838716640       -0.76427715512393
H            3.84010979824837       -2.05595088881203       -1.33828497562929
