31
 energy: -53.851806187380 gnorm: 0.000740675921 xtb: 6.6.1 (8d0f1dd)
N            2.87405540432420        3.11853175452549        0.00052014030899
C            2.38312593515772        2.07704851763493        0.00593545929646
C            1.88113912454718        0.76017704522097        0.00397815604794
C            2.84756253949364       -0.27564050080983       -0.04834002430448
N            4.15244300525336        0.10733475456187       -0.07491846381439
C            2.58818560062668       -1.64042191890602       -0.03485393607734
C            1.35149182816935       -2.29668607639376        0.03216718895451
N            1.39422577083822       -3.67002472218774        0.03213384706693
N            0.11815718425159       -1.82996632826914        0.04336232727238
C           -0.31164712060399       -0.55995118823983        0.01552045065570
C            0.46893571375584        0.68173346639989        0.03103364781132
N           -0.11378101933247        1.87676756990552        0.06678773073075
C           -1.43976559790190        2.03590965817162        0.05154917735253
N           -1.86756447263305        3.31877480718588        0.05243900308967
C           -2.29530305300100        0.93430840591000       -0.00566833326716
C           -3.68832580189281        0.74845362178974       -0.07421953419491
C           -3.95944970106819       -0.61264092551797       -0.12809940083331
C           -2.75049479586193       -1.31990444805221       -0.08557280192686
N           -2.53462292926720       -2.65304717715423       -0.07307925969388
C           -1.68868777812893       -0.36506829318993       -0.01063870764455
H            4.87290576733028       -0.57622691122720       -0.21767065314026
H            4.38190926325009        1.08222305489810       -0.16183430535924
H            3.45779034308763       -2.28643653672252       -0.06404243575952
H            0.54287512352794       -4.14199843382552        0.28635219253377
H            2.25400695041239       -4.12690307135536        0.28058894925093
H           -1.17528500902230        4.03613163910738        0.17867887851765
H           -2.83887648591687        3.52920938794562        0.18214344283578
H           -4.42873870219189        1.52897577815931       -0.09100889614631
H           -4.93621426049295       -1.05697066930329       -0.19213798462772
H           -3.26150502684007       -3.28293553113320       -0.36537299162572
H           -1.55615877187075       -2.89957010912855       -0.17538447520977
