24
 energy: -43.785563264408 gnorm: 0.000533617460 xtb: 6.6.1 (8d0f1dd)
N            5.53411377866829       -0.39993952606713       -0.00198375317040
C            4.39936079854978       -0.22785930514466       -0.00159582342586
C            3.00242510875223       -0.02344993307576       -0.00070446010823
C            2.55152820210563        1.30293115668066        0.00008949946560
C            1.25616215461270        1.75635950688302        0.00102193182135
C            0.03918074906792        1.03717197303341        0.00137841877703
N           -1.02995866567319        1.82286964831837        0.00238388139596
C           -2.27721162095816        1.33657071238124        0.00275771206633
N           -3.26092347637429        2.24629399193017        0.00377375232629
C           -2.51184294033387       -0.04717947322171        0.00201891363332
C           -3.62043772221421       -0.89329598119536        0.00208612076221
N           -3.24911527833612       -2.18772220821768        0.00119075028579
C           -1.92552771138259       -2.22886561564847        0.00052854689875
C           -1.36805499130489       -0.92627667281503        0.00097622514775
C           -0.06414173595886       -0.43401320684683        0.00066361634480
N            0.91591569006119       -1.34392847896783       -0.00020490997413
C            2.20320045985452       -1.18665607675423       -0.00073873933538
H            3.32833138656433        2.05920955767824       -0.00002966938665
H            1.11061448999489        2.82894120486792        0.00155470256838
H           -4.22423929589060        1.96457169704550        0.00441848030550
H           -3.01631569931740        3.22161663870430        0.00446899571930
H           -4.66386320742645       -0.63396659489756        0.00271364843996
H           -1.39338615644513       -3.16035910295969       -0.00023659994741
H            2.74651280668428       -2.12980893881090       -0.00135198821022
