29
 energy: -51.988790653096 gnorm: 0.000929405526 xtb: 6.6.1 (8d0f1dd)
N            3.95782748684536        1.42260471602553       -0.99942099671474
C            3.16808228939616        0.70842685899713       -0.56965908551494
C            2.24719113765229       -0.29870772709737       -0.18425670854175
C            2.79519197286334       -1.57902880088700       -0.31571614762111
C            2.21937232947186       -2.80144609687808       -0.04918974600409
C            0.89695121563789       -3.03814695537184        0.31894264519020
C           -0.17173269419770       -2.16133532319506        0.33727991536799
C           -1.35865031640794       -2.76970518886654        0.81296533375599
N           -2.25203132613624       -3.33617252357719        1.26055151642679
C           -0.23557259350498       -0.75122377088426        0.05516203996197
C            0.92526034230707        0.11749663283778        0.12337136354139
C            0.70631809908811        1.49088473351124        0.39268005830306
C            1.74729341261995        2.33055683659049        0.84306444612232
N            2.48918118163824        3.06651113985416        1.31919694630308
C           -0.56249655935253        2.07639115549137        0.31226984452017
C           -1.62767034917834        1.29520260234081       -0.05652861655958
C           -2.99870235624004        1.58781599337555       -0.29540793216013
N           -3.56368592497453        2.80997783846087       -0.29324788750641
C           -3.64800472343026        0.36739659782737       -0.58294219185210
C           -2.74301009705268       -0.66761353577108       -0.49897264403138
C           -1.46473380001463       -0.14331684181954       -0.16606730223010
H            3.83407260123866       -1.59294987706796       -0.62473255169346
H            2.86196678924369       -3.66815685492759       -0.11616007197581
H            0.65750966076556       -4.05886376136307        0.59566180781279
H           -0.65954036917688        3.13441471738323        0.51306679530581
H           -3.03623593760141        3.61100973709211        0.00541844961971
H           -4.55888638165712        2.90116549004577       -0.39377547266284
H           -4.68845509801499        0.27257866011248       -0.83271681615928
H           -2.96997752262846       -1.69739690763834       -0.69684429050282
