24
 energy: -43.027953154650 gnorm: 0.000403266000 xtb: 6.6.1 (8d0f1dd)
N            2.65752556197222       -2.01136728486498        0.81803324767448
C            2.14679167406273       -0.94591351939287        0.18342019192706
N            3.02277731145019       -0.05622083014700       -0.22731693504121
C            2.79756053014697        1.17849894557489       -0.60812399064529
N            1.83240753644708        1.99480556922591       -0.28944935897977
C            0.62036284402903        1.63572621229223        0.14157996836570
N           -0.16976617926862        2.60411462948123        0.57967151264408
C            0.01880583792801        0.32252766696794        0.01637484421885
C            0.72178416939350       -0.91162545440706       -0.07160750474981
C            0.01919582843960       -2.11427370090032       -0.26009164775965
C           -1.35592726132844       -2.17532637248534       -0.35696933320155
C           -2.07737364757599       -1.00263644055762       -0.18353611109479
N           -3.40201385304260       -0.74664183244266       -0.13764017195581
C           -3.46609586733418        0.55783696743913        0.09290886437854
N           -2.30116471273328        1.21043356671882        0.21051667624658
C           -1.37610541233667        0.23934078350543        0.03127247883239
H            3.64997598323693       -2.04716310606649        0.97795173675582
H            2.06690726153581       -2.75873119020922        1.13646169139995
H            3.61126940570165        1.63117106298187       -1.16833046738996
H           -1.19028852388292        2.38095658164704        0.60617333227083
H            0.18148027629009        3.54804249605268        0.56119869855233
H            0.58813307644370       -3.02644905805551       -0.37768735083340
H           -1.85994998984194       -3.11313112021398       -0.53216732595118
H           -4.40519589783278        1.07107949835557        0.19546731153602
