31
 energy: -58.665985728688 gnorm: 0.000926178090 xtb: 6.6.1 (8d0f1dd)
N           -0.13271186639721        4.65196981709838        0.34618564264052
C           -0.08668738178418        3.51013536717229        0.22703899882975
C            0.05301437372514        2.11608286255288        0.09794354726193
C            1.33813191023995        1.54981207818138        0.04711139719632
N            2.44702748315873        2.40504674838225        0.05546359999773
C            1.50645206242340        0.15538894497069       -0.03123057215543
C            2.83282144608225       -0.40653739907579       -0.20295110570697
N            3.71946879826455        0.23379913484717       -0.97441867088748
N            3.28234340078799       -1.46591679017334        0.44116688602444
C            2.55091697243488       -2.43645527645511        0.92972149916262
N            1.41406702504702       -2.85965747851786        0.45643840722887
C            0.54041337094180       -2.14696196112706       -0.23573649847683
N           -0.26313217518525       -2.82497472608466       -1.05646170901498
C            0.35974977298444       -0.71709294117938       -0.07210489484011
C           -0.91207256281554       -0.14997003144193       -0.04350572256130
C           -2.24420057773056       -0.63996028278945       -0.01139773708345
C           -2.73930265623609       -1.93074653122709       -0.00690040372528
N           -3.18778526849295       -2.99546841858677       -0.01762641958952
C           -3.06468038197550        0.52065619788363        0.08629890575444
N           -4.41489254300115        0.53384328256459        0.09309840158603
N           -2.35567791139763        1.65650024099219        0.11095143606934
C           -1.07148146010552        1.29120203340797        0.05209533908883
H            2.18688716981352        3.36356522108227        0.25334538402915
H            3.21302900188218        2.10099272596758        0.64024613346538
H            4.65069605526372       -0.13935316437593       -1.05131634294762
H            3.48814146999621        1.12731537083138       -1.37759834235235
H            3.01774720514070       -3.05278855728904        1.68909197954572
H           -1.08422892835594       -2.38995196213758       -1.44547474932203
H           -0.23452538578804       -3.83198755353032       -1.02728641881733
H           -4.90796213301043       -0.32064212828465        0.28673066247491
H           -4.85882526581200        1.40724788444232        0.31761796482509
