31
 energy: -59.478882007322 gnorm: 0.000545598426 xtb: 6.6.1 (8d0f1dd)
N           -5.59148026982528        1.97960935081874       -0.16958257131950
C           -4.60981775009339        1.38375563291013       -0.12817924072876
C           -3.42664946417015        0.61855039200881       -0.07035732164150
C           -2.23132918218645        1.30328650172280       -0.12447728276296
C           -0.89929634621574        0.85761350185868       -0.06150054012750
C            0.06592020136686        1.89052635316629       -0.04158260917384
C            1.42459179339510        1.66153292695893        0.01799076188407
C            2.32969370957921        2.74483147628488        0.04873640812879
N            3.04530961447604        3.64012358467211        0.07451815539573
C            1.87653589361367        0.33178495003284        0.03460275373535
C            3.13299699460180       -0.27594799023175        0.06638513048369
C            4.40801612066756        0.27702328392450        0.12601611555273
N            5.49343415337133        0.65380655965473        0.18372437156545
C            2.86530978240813       -1.68175420815627        0.03549703163665
N            3.80019881655009       -2.64966999139414        0.01099383404746
N            1.55876072457198       -1.94412235883787       -0.01393299810591
C            0.91094544731960       -0.74451854003714       -0.01186486139300
C           -0.46550790382183       -0.51580630876870       -0.04138098662990
C           -1.35595279565072       -1.66552131445385       -0.08167635872067
N           -0.78131055494674       -2.85156188889430       -0.22031581210337
N           -2.67761157695091       -1.73483259186663        0.03756277963593
C           -3.59509217179622       -0.79937328709809        0.08719654860679
N           -4.84356061663727       -1.25642773849268        0.28782230113550
H           -2.34150374598488        2.37974467914700       -0.20472480997353
H           -0.27960450667991        2.91414173802033       -0.06429521980767
H            4.76093378152641       -2.40170034342967        0.16972883198132
H            3.51791036999944       -3.60758339523116        0.11493811046561
H            0.25962736086773       -2.87842501810465       -0.20255511205039
H           -1.37492002256922       -3.66454328431002       -0.21718608466347
H           -4.97881954005799       -2.24779728790970        0.38419048606532
H           -5.63158244802878       -0.63175076756335        0.31444156758132
