28
 energy: -51.474056387868 gnorm: 0.000851285380 xtb: 6.6.1 (8d0f1dd)
N           -2.34792705042264       -3.95682712276292        0.17887546029423
C           -2.09615062448500       -2.83777897371617        0.13992838489851
C           -1.87209192929605       -1.44140705876070        0.11640250979555
C           -2.97515929387396       -0.65375162823825        0.45625575496888
N           -3.17068542947729        0.62800650755744        0.33446915792780
C           -2.29142675217043        1.55399292170923       -0.05853626228127
N           -2.89027662208470        2.71952453258452       -0.38006253917775
C           -0.87512630481457        1.48307898043481       -0.07905566268080
C           -0.26536340451389        2.72973283871038       -0.30062477103596
N            0.12629386325986        3.79055050171815       -0.52259295919936
C           -0.04255635080810        0.32932004390382        0.00510226323367
C           -0.53588271034122       -1.03807109514768       -0.14319633640516
N            0.26736324080016       -2.05670460217612       -0.44108435305504
C            1.58046533350292       -1.91509150701438       -0.46163589688215
C            2.17733281245910       -0.73603730914352       -0.08218058440528
C            3.53339824866170       -0.33375100188644        0.09968106144771
N            4.61542195336769       -1.12191349428384       -0.02712579781424
C            3.52461478336468        1.03201827753522        0.44430632023643
C            2.22401386300837        1.49183468546819        0.46658959804563
C            1.34415711320689        0.42444182738104        0.14389950147244
H           -3.84990523051031       -1.18631824168763        0.82115074374230
H           -3.88909251810066        2.76917054633085       -0.28100523858448
H           -2.35925936857713        3.53889757158385       -0.61873711473930
H            2.13439060198698       -2.79749526153176       -0.75868025901445
H            5.53456727616298       -0.74756995489744        0.12461291568266
H            4.51477226906220       -2.09305206152217       -0.26051598843599
H            4.40006840143409        1.61573471075921        0.66082564413266
H            1.93509679979836        2.49324668719177        0.71922981953300
