27
 energy: -51.750538736099 gnorm: 0.000743616798 xtb: 6.6.1 (8d0f1dd)
N            3.08140112997171        3.27244457583781       -0.31610537788871
C            2.71847248286185        2.18723039211565       -0.22992973746825
C            2.32833691565138        0.83105961605404       -0.13233336139921
C            3.32268005412244       -0.11193263250351       -0.38538052468546
N            3.34033660123082       -1.39997922690333       -0.14149089042772
C            2.32689783943593       -2.14929974400307        0.23401460684438
C            0.95321884369139       -1.91232046734921        0.19645436687352
C            0.18938575622486       -3.06726597875385        0.47785434284407
N           -0.35613436601660       -4.04112640269671        0.74702335171356
C            0.26833282170719       -0.67262340635700        0.01699782379254
C            0.93360402769254        0.62562799104200        0.09801967584099
N            0.26802485103623        1.74782225893420        0.30020021863046
C           -1.06761658018462        1.80301100399043        0.30308945621903
N           -1.60105380236511        3.00676463596920        0.59258756163261
C           -1.80590461828316        0.67231138120276       -0.04625619760083
C           -3.15898055765929        0.37067399816957       -0.29485957981730
N           -4.22741553298412        1.20138258509019       -0.31433258790212
N           -3.32741784826088       -0.96042274312929       -0.51255760506668
C           -2.14698816392550       -1.53613556227601       -0.41323439777124
C           -1.11367464339181       -0.59504308889309       -0.13600811245032
H            4.26715942530937        0.26916969048346       -0.76468186112016
H            2.63018174936232       -3.14742355222826        0.54020169299561
H           -2.56774748894978        3.08136460859638        0.85662985468814
H           -0.95658968614333        3.71529382043526        0.90502150151181
H           -5.08238441772530        0.77677863495575       -0.63920742401737
H           -4.08698433262731        2.16992050161557       -0.55025965142492
H           -2.05055455717599       -2.59217544769874       -0.57381096214958
