28
 energy: -47.475511915792 gnorm: 0.000546062076 xtb: 6.6.1 (8d0f1dd)
N           -5.00208331332698       -0.99738362494733        0.35454811032238
C           -4.01592745056512       -0.42481155951160        0.21880546759505
C           -2.80207955434238        0.28589613844777        0.06014329202968
C           -2.95827303053363        1.60558254042716       -0.37024996255180
C           -1.99842052313596        2.59506994398085       -0.39469007130040
C           -0.65293734978416        2.47819608381468       -0.08918047028861
C            0.16082349940786        1.35209201700767        0.07792935994378
C            1.54420128395642        1.62809209754001        0.21641907114910
C            2.51242210144659        0.64975271501275        0.17111228665510
C            3.87583896336518        0.98908466797642        0.31377795343774
N            4.98163106508320        1.26706868119931        0.43683011766935
C            2.13178579259264       -0.68223248964718       -0.06274165357262
C            2.85937824596151       -1.84362335497398       -0.25377974421661
C            1.94300820048259       -2.88853883326800       -0.47152402080357
C            0.65262137639538       -2.40971181129279       -0.36857623662028
C            0.71049923048684       -1.01309830287872       -0.10985005573683
C           -0.26744470077159       -0.03323628665754        0.06067326368683
C           -1.62356341176097       -0.43495335126635        0.34771697643490
N           -1.77956132590245       -1.64583421113563        0.91383114230993
H           -3.97082847695528        1.89211220988757       -0.62593548913998
H           -2.34369795212290        3.58801611836445       -0.64982558879266
H           -0.11382693635568        3.41828678882713       -0.06874102235061
H            1.84938324245931        2.65847896189196        0.32728889467958
H            3.93005283793869       -1.92503140703824       -0.25940472843897
H            2.21104818055077       -3.90732327062488       -0.68704449440570
H           -0.23023855507586       -2.99108949927634       -0.56542853546159
H           -2.69759505325632       -1.97637280252613        1.16257888786039
H           -0.96807016183683       -2.17033078713192        1.19754018990536
