31
 energy: -54.650187129481 gnorm: 0.000861632102 xtb: 6.6.1 (8d0f1dd)
N            4.20992120557461       -2.97874404115982       -0.15937188289559
C            3.60825029496323       -1.99956288806041       -0.17279362715922
C            2.85529893285422       -0.80981415663233       -0.16709991587366
C            3.43943829743802        0.31802264095679       -0.74997578679150
N            3.13966626462133        1.56019772138071       -0.50515330842023
C            2.06770084888264        2.05854447709696        0.08304536513318
N            2.25255740263212        3.27354843825842        0.63231678780951
C            0.74311813888596        1.50063268674908        0.03838121238428
C           -0.33748728583973        2.38987999902809       -0.04342385811993
C           -1.64873862150259        1.96126500322020       -0.06759791500060
C           -1.91187052043467        0.60608325070767       -0.00341714767527
C           -3.12382430804139       -0.10927303477653       -0.06606888159364
C           -4.40334478013110        0.41934446996138       -0.17450506123486
N           -5.47550004272675        0.83123390406080       -0.27177076586565
C           -2.80122760836092       -1.48967798441931       -0.06052839083746
N           -3.71846351106217       -2.50299301243449       -0.07486557167742
C           -1.41616763247677       -1.63477529013382        0.05129078502334
C           -0.82849892516478       -0.35893812476547        0.09865716490294
C            0.50893300074360        0.08586520689801        0.14378888182192
C            1.55442256348056       -0.86625299372821        0.39666997554269
N            1.24667150505029       -1.95526746107300        1.11808020191629
H            4.32399846896874        0.17854273604475       -1.36197089618378
H            1.49396861737645        3.77562086626270        1.05667381165524
H            3.16236913096903        3.69602878432833        0.56449019308144
H           -0.13719214288145        3.44626625520147       -0.14834613458874
H           -2.45845062410611        2.67074147383259       -0.15392647238559
H           -4.65230854576129       -2.25797185532984       -0.36272476948520
H           -3.39779728899517       -3.41345783848732       -0.36010249228819
H           -0.92226987529763       -2.58908481695061        0.00364916171556
H            0.32701330058952       -2.04199803039529        1.51751038588364
H            1.92273740605227       -2.69078392984165        1.24340827920666
