28
 energy: -51.479772077686 gnorm: 0.000238594188 xtb: 6.6.1 (8d0f1dd)
N           -5.55032963157598       -1.17062411608189       -0.49184865429601
C           -4.45718563964117       -0.83346536083788       -0.37436643305202
C           -3.14790348272791       -0.37051708586588       -0.22351586150804
C           -1.97934632994355       -1.13421581331241       -0.21295535770863
C           -0.88662361532725       -0.26752976957878       -0.04296394440314
C           -1.40299749152067        1.07898313235934        0.06833321837661
C           -0.51298445121702        2.09926693751886        0.34947549966404
N            0.78850358463124        1.90519814268073        0.36633033546405
C            1.31446961614464        0.69021823379712        0.16284935743991
C            2.70603484228546        0.68995576325089       -0.06975349368734
C            3.32097334231340        1.96288163116243       -0.11753756900408
N            3.88283094408061        2.96274380097642       -0.16312222312514
C            3.55946378403079       -0.39319519115517       -0.35682091948570
C            3.30151301404219       -1.72927305298024       -0.27564214540012
C            2.06772360470978       -2.32110768865274        0.14310683422083
N            2.09998139419488       -3.63064475552622        0.47384285128335
N            0.87706835367140       -1.78303800274631        0.18223024572233
C            0.48481330528122       -0.51442407388678        0.08307621655950
C           -2.81240046002669        1.00459863162995       -0.04860586139554
N           -3.69092503348826        2.02232161060700       -0.00596535911252
H           -1.92502484140478       -2.20070668724409       -0.31856294700773
H           -0.82918525286744        3.11537446989761        0.55421930599509
H            4.56620877246578       -0.10831034747491       -0.64134985591132
H            4.10514242668792       -2.41674392593561       -0.50224169161990
H            1.24026887574955       -4.07691140491386        0.74092375451016
H            2.94780539340865       -4.16504331402681        0.42843270116385
H           -4.67606585322437        1.83713614388803       -0.08012012549470
H           -3.37462693403324        2.96502152795215        0.12947332771181
