27
 energy: -47.767327212698 gnorm: 0.000445015272 xtb: 6.6.1 (8d0f1dd)
N           -5.12596404820696        0.61439683547543        0.00214313102020
C           -3.99239599550560        0.80431306976219        0.00142248574880
C           -2.62473172771532        1.07420442896475        0.00089582238267
C           -2.02193069463868        2.35533550684367        0.00029049811179
N           -0.69910249338017        2.31069688675290       -0.00019207757945
C           -0.36291798766939        0.99902270525822        0.00007805686394
C           -1.54817489273840        0.17213037498627        0.00074726491634
C           -1.39842828622250       -1.22184432859380        0.00105636662094
C           -2.51739151472914       -2.08586609386162        0.00178387116090
N           -3.40161056581383       -2.81547517906836        0.00215831043024
C           -0.12224584440594       -1.75891901652571        0.00075571357061
C            1.05020714029661       -0.97456955646606        0.00014755068029
C            2.26900376872970       -1.67605314576974       -0.00002995447860
C            3.57538386537040       -1.25274660541270       -0.00059349523412
C            4.09869340573270        0.05002171070140       -0.00120954981855
N            5.44343039047201        0.17877975965264       -0.00169079952401
C            3.34174221590093        1.24342743874028       -0.00134303832948
C            1.98782237329328        1.40118625220890       -0.00090117512164
C            0.92969870005677        0.46438703303130       -0.00022893809136
H           -2.53944863830234        3.29791211709392        0.00015830321155
H           -0.02131339651282       -2.83527010163494        0.00110757913751
H            2.15171179272715       -2.75420902340145        0.00032646888465
H            4.32206022125342       -2.03872732569237       -0.00061005416743
H            6.03781675772379       -0.63101209264563       -0.00167333702543
H            5.87091956034327        1.08775633490210       -0.00219631645783
H            3.93053578963142        2.15333947054366       -0.00188551798367
H            1.61863994180961        2.42062207495473       -0.00116168632887
