37
 energy: -71.370873088104 gnorm: 0.000902205944 xtb: 6.6.1 (8d0f1dd)
N            5.25873610938966        2.89365461990836       -0.08532759157923
C            4.29263610049413        2.27300949004194       -0.03579315730701
C            3.11196592618185        1.50393651934115        0.00807964655714
C            1.99475260928349        2.14375618153981        0.53080859807279
C            0.67155131066815        1.73732801197397        0.56408130177564
C           -0.17852303963513        2.64681434661402        1.22512563160305
N           -0.83896100669112        3.40206310110429        1.78754517961821
C            0.07820124811186        0.49377144576671        0.16864422276802
C            0.85331621819628       -0.72980653297851        0.12133005071846
C            2.20183793462080       -0.81723106383793       -0.32396568671905
C            2.57396154588783       -2.07886148664961       -0.84207336987186
N            2.92740836685671       -3.03699737182373       -1.37187875419005
C            3.20309482282214        0.16672076733739       -0.46873764612908
N            4.36726490997214       -0.18981446845025       -1.05031321653528
C            0.19321985822571       -1.93249854749646        0.44123454579588
C            0.92127175946598       -3.06828185695649        0.84188297381021
N            1.40510092257250       -4.00973416279818        1.29174439926438
C           -1.22142405132835       -2.04322507718844        0.48805083313417
N           -1.80615095247198       -3.22708803135505        0.81364590738271
C           -1.94813319197988       -0.92371611901458        0.09492901019041
C           -3.32897542688616       -0.75021905361059       -0.16292584320612
N           -4.29574966651242       -1.69936620823264       -0.14638263059653
C           -3.54347784579677        0.61719048776646       -0.44792680048222
C           -4.76956814699336        1.17600648521964       -0.80796689060501
N           -5.78663091906814        1.62015665212937       -1.11024975360512
C           -2.31641294533774        1.31134009922468       -0.37389537746705
N           -2.18330934435112        2.58492828688220       -0.77442236289538
C           -1.29522839091800        0.36118955154709       -0.02035215578909
H            2.18193329520216        3.13435458781064        0.93323792039160
H            5.12484730853437        0.47066139616647       -1.10183735523880
H            4.52356916072239       -1.14189685518161       -1.33701612574874
H           -2.73831067940283       -3.20473386054147        1.19205690387589
H           -1.19852381773551       -3.94935406398312        1.17226200876674
H           -4.03113321751164       -2.65306543482398       -0.33222781406288
H           -5.20446519082163       -1.41952125765544       -0.48369496421215
H           -1.34129594599813        3.10599291545315       -0.60320345499476
H           -3.02535262226895        3.11206035345125       -0.94289256878995
