27
 energy: -46.961538857949 gnorm: 0.000415441672 xtb: 6.6.1 (8d0f1dd)
N            5.25067245301473        1.14360757299037        0.30641593759737
C            4.23954543556983        0.60907103202805        0.18109978816923
C            2.98519739380462        0.00998596324185        0.05747006741873
C            2.70617334042430       -1.31668571221183       -0.26150302837601
C            1.31062390842839       -1.49035889208058       -0.22675535946195
C            0.51310686823603       -2.60075033206140       -0.44890155854566
C           -0.85490301267353       -2.50436004121868       -0.26800623189069
C           -1.47600287607831       -1.30709618860482        0.09967281282047
N           -2.73308604618133       -1.38765911039421        0.53497165169932
C           -3.60289361637643       -0.44800673704889        0.74666236073326
N           -3.69705204722239        0.77170345623693        0.25301651010647
C           -2.67019758722266        1.46128843380544       -0.23201586312754
N           -3.01700001355871        2.64006483311156       -0.79676912641078
C           -1.29166500050025        1.17490294114479       -0.10690052501494
C           -0.69162063134998       -0.06359788356675        0.10076462442521
C            0.70627106514434       -0.21535287371385        0.08997203192540
C            1.75533917939069        0.70370346902304        0.28444945777859
N            1.67417027728699        2.02045330039291        0.62860168973487
H            3.43412014318863       -2.07197918226596       -0.49221216810739
H            0.96007188670036       -3.55000986168810       -0.70701771525920
H           -1.48280205556355       -3.37770187262580       -0.34986351541354
H           -4.47100961480056       -0.75689407092187        1.32460050023726
H           -2.33507745358865        3.24157411949483       -1.22036511059960
H           -3.99543525172225        2.84257214667451       -0.90019623901769
H           -0.62813858632362        1.98785256553227       -0.37553021528168
H            0.85164705539834        2.31658208147038        1.13087618752987
H            2.53927896057448        2.45246850305603        0.91885819583040
