30
 energy: -50.109328574077 gnorm: 0.000492974238 xtb: 6.6.1 (8d0f1dd)
N            5.11628966088580       -0.96229601092361       -0.42100855035849
C            4.06237078425248       -0.52119650577663       -0.28000071161578
C            2.78240027539227        0.03733193029933       -0.09976855396702
C            1.73466679853965       -0.89422827146279       -0.06508435164807
C            0.36804099407281       -0.76083346135749        0.07608630585694
C           -0.41768711654835       -1.96565442917451        0.14356886669434
N            0.19439017366093       -3.20405624947456        0.21788239989294
N           -1.73009806664925       -2.01637850410872        0.07962870883620
C           -2.40656082046651       -0.87479350720742       -0.01744851301292
C           -3.76983537182520       -0.67651358551263       -0.11048762956410
C           -3.99317647357094        0.71885305376285       -0.12829404437676
N           -5.22455108773239        1.31041480236397       -0.15825637606533
C           -2.76964217166935        1.39633705022284       -0.04296099935109
C           -1.74947959586538        0.44324334942062        0.02162016498221
C           -0.35784253972775        0.51447387396492        0.09295681609987
C            0.24310948090700        1.78102450833327        0.18338964948244
C            1.55236444820056        2.19343070519949        0.20484627627848
C            2.73025509000249        1.44142788007360        0.06067625491266
N            3.90325026829094        2.11808530406491        0.07226162884442
H            2.08670510950320       -1.91172297840945       -0.19480141513563
H           -0.48591619974049       -3.94198153398941        0.32883429081943
H            0.99580583008190       -3.29714436179193        0.82065545572551
H           -4.52625184103709       -1.43546830142981       -0.15747822796073
H           -5.26480943919466        2.28404622916001       -0.40994259109606
H           -5.99746476401774        0.74443439933949       -0.46634260373938
H           -2.66760982783172        2.46654264523837       -0.04098629394784
H           -0.47663816878298        2.58634559868726        0.25875516272759
H            1.71283312154379        3.26007276854071        0.31430457982608
H            4.77238368890385        1.62981897944476       -0.06078483422126
H            3.91195790741459        3.11843285610389        0.15475498677436
