29
 energy: -56.787619220817 gnorm: 0.000683357964 xtb: 6.6.1 (8d0f1dd)
N           -5.82195710165845        1.75883089429471        0.78349953676639
C           -4.84012145678176        1.19842949652416        0.58832201799305
C           -3.64170202965302        0.50682835511406        0.35314541386288
C           -3.54291339338880       -0.83646339525583       -0.04117384341942
C           -2.18026809746453       -1.15879709328537       -0.12074081975744
C           -1.53452050747032       -2.33918142517465       -0.45076453186614
C           -0.15058449197403       -2.40865132256333       -0.34287306142141
C            0.51531357486101       -3.63259925969620       -0.57303986276781
N            1.03660346513758       -4.63054774078092       -0.78881640961476
C            0.61853495163826       -1.29492539371100        0.08464217819833
N            1.82387308469402       -1.54459235311941        0.53556504856867
C            2.83034495137330       -0.78307763358120        0.83221922627128
C            3.09109031564658        0.50759699003563        0.35626150563042
C            4.41847794909898        0.97310321282637        0.47002520184875
N            5.49166270870813        1.36999336128309        0.56420013643294
C            2.13536414535603        1.39355999554694       -0.20484665138744
N            2.59407956665772        2.54669682934809       -0.72512690611534
C            0.72258776360982        1.19644501089071       -0.14711203958542
C           -0.01268101568906        2.33809640157322       -0.55005783645110
N           -0.51788642010927        3.30100345619350       -0.91936826380325
C           -0.02364254520777        0.03251519731700        0.11588852628367
C           -1.42342936288211        0.03961103465240        0.18715274106064
C           -2.35386622671407        1.04996197975759        0.48632488815708
H           -4.36601046358250       -1.49601297847052       -0.24267303737106
H           -2.09413001637656       -3.22253426208694       -0.72306995287608
H            3.60406493300863       -1.27051897541285        1.41622622455992
H            3.58137764882261        2.74560815595565       -0.70933073172454
H            1.95962215614451        3.25483961875886       -1.05692469904633
H           -2.14269446280469        2.04904243876634        0.81700997047354
